         618
 CSIRO Nanostructure Databank - Neutral Graphene Oxide Data Set
C         23.20983        69.25489         2.50866
C         23.12310        70.67646         2.58494
C         21.92827        71.31965         2.95343
C         22.99493        73.50426         2.86661
C         21.87178        72.71948         3.07491
C         25.64752        65.14780         1.34192
C         25.60117        66.53873         1.48611
C         24.50083        67.19232         2.10035
C         25.59885        69.41151         1.86701
C         24.39553        68.59706         2.15877
C         25.48367        70.88462         1.88764
C         24.28691        71.48565         2.30436
C         25.42540        73.66214         2.39572
C         24.23735        72.91041         2.49240
C         27.96679        61.18325        -0.51684
C         28.11456        62.47756         0.24445
C         26.84395        63.12585         0.69069
C         27.52175        65.25321        -0.39449
C         26.67330        64.47755         0.59495
C         27.32108        66.72002        -0.19738
C         26.60377        67.34024         0.77857
C         27.74684        69.74107         0.46396
C         26.76166        68.77914         1.15168
C         27.86772        71.03727         1.26001
C         26.65075        71.66242         1.68406
C         27.90505        73.71279         2.17474
C         26.64784        73.04609         2.05503
C         30.32590        57.13752        -1.83259
C         30.30896        58.51491        -1.72187
C         28.99399        59.26132        -1.73746
C         30.33695        61.34311        -1.05805
C         29.06930        60.61027        -1.05756
C         30.33233        62.70656        -0.77606
C         29.12818        63.40353        -0.40170
C         30.22429        65.60312        -0.76380
C         29.01677        64.78540        -0.45340
C         30.28204        67.07136        -0.58910
C         29.15124        67.90523        -0.51686
C         30.32107        69.69112         0.58350
C         29.10199        69.10631         0.20295
C         30.37424        70.90161         1.48083
C         29.07808        71.68251         1.49657
C         30.39339        73.64716         2.46369
C         29.09029        73.01582         2.01689
C         32.75463        52.83095        -1.71827
C         32.72707        54.22776        -1.96327
C         31.55071        54.97899        -1.94300
C         32.76289        57.13856        -2.01798
C         31.55080        56.41125        -1.95616
C         32.76932        58.55315        -1.85273
C         31.53549        59.24921        -1.68910
C         32.77213        61.36057        -1.57140
C         31.55581        60.66014        -1.44037
C         32.84685        62.78562        -1.19852
C         31.56921        63.49193        -0.81021
C         32.71946        65.67561        -1.19206
C         31.45302        64.95546        -0.92312
C         32.75475        67.17254        -0.85858
C         31.50242        67.77033        -0.37283
C         32.75876        69.90364        -0.03167
C         31.51052        69.07534         0.15425
C         32.78717        71.20429         0.74824
C         31.61094        71.75294         1.29048
C         32.81743        73.79869         1.80590
C         31.62889        73.05503         1.82330
C         35.21930        48.63126        -0.89000
C         35.18493        49.98370        -1.24687
C         33.99377        50.72695        -1.34420
C         35.21628        52.86320        -1.68411
C         33.96753        52.12294        -1.63394
C         35.27042        54.22361        -1.93676
C         34.00623        54.90631        -2.26204
C         35.30451        57.10516        -2.07833
C         34.02024        56.43222        -2.30424
C         35.30283        58.56791        -1.73555
C         33.99413        59.28936        -1.94258
C         35.15168        61.50503        -2.42617
C         33.97696        60.68397        -1.91176
C         35.21523        62.90883        -1.86535
C         34.06392        63.56814        -1.52660
C         35.21454        65.73519        -1.21046
C         34.03616        64.99587        -1.26644
C         35.23161        67.11035        -0.74851
C         34.04193        67.76790        -0.50189
C         35.27930        69.87657        -0.03213
C         34.02279        69.07768         0.24315
C         35.27526        71.32246         0.34105
C         33.99631        71.93391         0.80471
C         35.27160        74.07491         1.27628
C         34.01038        73.23953         1.32821
C         37.67150        44.48253         0.18044
C         37.66837        45.84501        -0.16160
C         36.45578        46.56266        -0.39507
C         37.71138        48.63589        -0.86980
C         36.44670        47.91913        -0.73376
C         37.73394        49.98161        -1.21311
C         36.46816        50.65885        -1.67404
C         37.75288        52.88179        -1.40803
C         36.44845        52.13457        -1.34876
C         37.74008        54.30575        -1.78199
C         36.51951        54.96447        -1.95499
C         37.77380        57.14612        -1.98289
C         36.50615        56.41679        -2.04972
C         37.80201        58.55392        -2.10390
C         36.51642        59.25393        -2.31486
C         37.78496        61.43311        -2.25105
C         36.49199        60.74944        -2.46386
C         37.73593        62.83759        -1.76212
C         36.48949        63.64396        -1.95875
C         37.77453        65.71079        -1.06885
C         36.50687        65.09475        -1.54425
C         37.74682        67.05940        -0.59820
C         36.51381        67.76502        -0.45324
C         37.75467        69.76706         0.30044
C         36.54333        69.10978        -0.04868
C         37.74051        71.16771         0.74434
C         36.55610        71.92027         0.78018
C         37.74589        73.87197         1.61269
C         36.55513        73.26699         1.25530
C         40.06553        40.30291         1.45170
C         40.06577        41.67099         1.02857
C         38.87733        42.38762         0.79076
C         40.11987        44.47028         0.36925
C         38.87867        43.77035         0.44213
C         40.13941        45.86516         0.01528
C         38.91951        46.55763        -0.26324
C         40.18435        48.62968        -0.72989
C         38.94491        47.93232        -0.60757
C         40.22355        49.99572        -1.15750
C         38.97502        50.70933        -1.35125
C         40.20956        52.80724        -1.91918
C         38.98308        52.09192        -1.55960
C         40.22055        54.29850        -1.87562
C         38.99687        55.00489        -1.88562
C         40.24362        57.15790        -1.89463
C         39.00567        56.43826        -1.92787
C         40.25010        58.58391        -2.00341
C         39.01673        59.28298        -2.17530
C         40.27004        61.51598        -2.38498
C         38.97578        60.73654        -2.22620
C         40.27590        62.90089        -1.74540
C         38.99690        63.55499        -1.40780
C         40.22764        65.67275        -0.87338
C         38.98784        65.02137        -1.15773
C         40.21335        67.00236        -0.39262
C         38.96827        67.70079        -0.23431
C         40.19361        69.59154         0.89921
C         38.95241        69.03765         0.25441
C         40.20634        71.09135         1.02613
C         38.97698        71.79627         1.10695
C         40.21025        73.80562         1.80966
C         38.98669        73.17309         1.51194
C         42.44546        36.23632         2.90586
C         42.45948        37.55362         2.43568
C         41.25206        38.26671         2.15984
C         42.55525        40.15793         1.15895
C         41.24793        39.57082         1.64331
C         42.55364        41.67001         1.15307
C         41.32608        42.36172         0.93032
C         42.57287        44.44613         0.62963
C         41.34220        43.75942         0.63777
C         42.57462        45.90237         0.43877
C         41.35703        46.58108        -0.03069
C         42.63659        48.67113        -0.49748
C         41.40602        47.94896        -0.42363
C         42.66723        50.01899        -0.88436
C         41.45850        50.66771        -1.27904
C         42.83280        52.81564        -1.87794
C         41.51625        52.02784        -1.84776
C         42.66126        54.25318        -1.38108
C         41.43625        55.00954        -1.72905
C         42.71438        57.15270        -1.57404
C         41.46562        56.42846        -1.71513
C         42.69243        58.58799        -1.66654
C         41.50396        59.29779        -1.89620
C         42.70502        61.45641        -2.03168
C         41.52823        60.74519        -2.03192
C         42.69567        62.94371        -2.10263
C         41.43624        63.61866        -1.68153
C         42.69526        65.65527        -1.03470
C         41.48380        64.99272        -1.18361
C         42.73391        66.90536        -0.17614
C         41.45113        67.69348        -0.11588
C         42.69494        69.73623         0.53929
C         41.46870        68.98973         0.36933
C         42.66626        71.06699         0.96821
C         41.42639        71.75259         1.23195
C         42.66674        73.79847         1.94782
C         41.44374        73.13905         1.64843
C         44.82898        33.55387         4.00346
C         43.63687        34.20661         3.68451
C         44.90655        36.22245         3.11346
C         43.64991        35.54734         3.23250
C         44.94677        37.57454         2.66164
C         43.73379        38.23398         2.29631
C         45.01630        40.22586         1.75065
C         43.78051        39.55351         1.81359
C         45.04847        41.61918         1.28946
C         43.76371        42.35399         1.16187
C         45.01971        44.46828         0.97238
C         43.79808        43.77157         0.92075
C         45.16910        45.80112         0.32620
C         43.88166        46.59963         0.29669
C         45.01354        48.77692         0.30048
C         43.95346        47.93838        -0.40173
C         45.06339        50.19446        -0.12256
C         43.90919        50.79078        -0.84289
C         45.19922        52.88278        -0.97444
C         43.96835        52.12468        -1.15733
C         45.22079        54.28937        -1.12063
C         43.93629        55.02511        -1.13086
C         45.20590        57.15834        -1.36885
C         43.93523        56.47879        -1.34443
C         45.23689        58.56469        -1.52627
C         43.96452        59.31293        -1.47285
C         45.27740        61.49643        -2.03322
C         43.98953        60.80689        -1.70698
C         45.27147        62.87728        -2.04157
C         43.99983        63.66824        -1.96836
C         45.13640        65.75185        -1.18682
C         43.96906        65.05229        -1.38291
C         45.17562        67.25173        -0.99390
C         43.93283        67.79572        -0.35248
C         45.20220        69.76892         0.34727
C         43.94290        69.08599         0.14423
C         45.20044        71.18104         0.76462
C         43.90764        71.86967         1.04101
C         45.13620        73.80519         2.04426
C         43.92360        73.17865         1.75552
C         46.05717        34.20471         3.88817
C         47.36414        36.23801         3.32301
C         46.12182        35.54837         3.44498
C         47.42120        37.56804         2.90410
C         46.19580        38.25380         2.56450
C         47.48016        40.35276         2.21985
C         46.22891        39.60739         2.14495
C         47.52323        41.72526         2.08583
C         46.33231        42.38491         1.52391
C         47.46774        44.64061         1.75726
C         46.20923        43.86002         1.59402
C         47.46483        46.04572         1.29330
C         46.31503        46.62413         0.84922
C         47.54765        48.59349         0.02222
C         46.31054        48.13771         0.81036
C         47.54857        50.08348        -0.16194
C         46.40005        50.81483        -0.27068
C         47.62698        52.91793        -0.62705
C         46.41146        52.21721        -0.65758
C         47.66655        54.31332        -0.84159
C         46.43639        55.00561        -1.06379
C         47.67480        57.13190        -1.26505
C         46.43770        56.44040        -1.22154
C         47.69034        58.52650        -1.56065
C         46.45907        59.25627        -1.67930
C         47.69645        61.08630        -2.62747
C         46.48420        60.64792        -2.09392
C         47.78644        63.30954        -2.54513
C         46.51772        63.68379        -1.89113
C         47.68099        65.92243        -1.35718
C         46.43582        65.08911        -1.36958
C         47.65422        67.15376        -0.53562
C         46.44397        67.79131        -0.35638
C         47.68393        69.78862         0.50229
C         46.42357        69.11294         0.20753
C         47.70358        71.07315         1.01568
C         46.43608        71.69530         1.42815
C         47.73235        73.74002         2.21054
C         46.41976        73.07946         2.03792
C         48.66919        38.26701         2.76576
C         49.94851        40.31925         2.21482
C         48.71772        39.61868         2.45668
C         50.03901        41.70718         2.13017
C         48.77278        42.50537         2.52003
C         49.79750        44.81929         2.34047
C         48.75428        43.97129         2.06443
C         49.86558        46.20498         1.90595
C         48.70275        46.81723         1.33710
C         50.05214        48.74761         0.60200
C         48.78822        48.05911         0.72353
C         50.09446        50.01279         0.03401
C         48.86871        50.68596        -0.55320
C         50.14155        52.90904        -0.18553
C         48.84366        52.16904        -0.25369
C         50.12843        54.33019        -0.56677
C         48.92573        55.01137        -0.83545
C         50.14887        57.11566        -1.21821
C         48.93289        56.43419        -1.11480
C         50.19297        58.51382        -1.52584
C         48.94401        59.17992        -1.74633
C         50.21444        61.09688        -2.55118
C         48.96002        60.46525        -2.34974
C         50.27507        63.30305        -2.48620
C         48.98089        63.87767        -2.19955
C         50.12662        65.56697        -0.70798
C         48.96466        65.20964        -1.56044
C         50.11462        66.91632        -0.05123
C         48.89525        67.75474        -0.12996
C         50.17826        69.61444         0.83266
C         48.92982        69.05715         0.34873
C         50.12192        70.87138         1.68493
C         49.00117        71.80946         1.16196
C         50.19704        73.71851         2.22518
C         48.92981        73.11084         1.93501
C         51.30668        42.27924         1.78217
C         52.83911        44.27204         1.51144
C         51.72633        43.59329         2.05314
C         53.02096        45.67943         1.65581
C         51.08616        46.89774         1.83386
C         52.56396        48.68307         0.86227
C         51.26623        48.09978         1.09783
C         52.62040        50.02631         0.38341
C         51.41616        50.65294        -0.28276
C         52.59389        52.86019        -0.19364
C         51.40958        52.16183        -0.20436
C         52.56488        54.29703        -0.34835
C         51.38714        54.98502        -0.62147
C         52.61480        57.18924        -0.81646
C         51.44969        56.35111        -1.24573
C         52.74729        58.50697        -1.52834
C         51.41480        59.23757        -1.61731
C         52.62294        61.46451        -1.84317
C         51.41956        60.61675        -1.97623
C         52.65301        62.84950        -1.82544
C         51.43172        63.65755        -1.83340
C         52.68906        65.54394        -0.58401
C         51.40469        64.81404        -0.90198
C         52.60266        66.95985        -0.16764
C         51.41540        67.58061         0.17744
C         52.60895        69.42664         1.43024
C         51.36323        68.92029         0.73260
C         52.61173        70.92486         1.69379
C         51.44460        71.61992         1.73775
C         52.66772        73.71376         2.23268
C         51.42189        73.04324         2.09003
C         53.92953        46.50464         1.01232
C         55.02441        48.66501         0.81148
C         53.82901        47.95707         0.97658
C         55.06907        50.07067         0.59819
C         53.82840        50.74823         0.33011
C         55.06226        52.86349         0.06615
C         53.86286        52.16379         0.02833
C         55.13189        54.34137        -0.27237
C         53.80056        55.04810        -0.06842
C         55.08319        57.30402        -0.17410
C         53.76918        56.57325        -0.18921
C         55.14084        58.65074        -0.80305
C         53.82457        59.39512        -0.88838
C         55.20829        61.44327        -1.58913
C         53.90721        60.71883        -1.63951
C         55.23311        62.91652        -1.56040
C         53.95743        63.67414        -1.87331
C         55.13520        65.69583        -0.88078
C         53.94460        64.99232        -1.10995
C         55.11285        67.06597        -0.48476
C         53.84774        67.74947        -0.20365
C         55.15321        69.55447         1.09743
C         53.84386        69.04403         0.61954
C         55.15977        70.84739         1.93176
C         53.85332        71.51667         2.34514
C         55.13339        73.68702         2.25812
C         53.90269        73.02693         2.22535
C         56.28144        50.78653         0.55213
C         57.53640        52.90258         0.29031
C         56.30962        52.18289         0.31891
C         57.60038        54.31580         0.23975
C         56.28555        55.04000         0.50139
C         57.62278        57.10686        -0.36079
C         56.33433        56.53796         0.14882
C         57.62057        58.53918        -0.78166
C         56.34582        59.28725        -0.92963
C         57.63150        61.36456        -1.11600
C         56.42512        60.70977        -1.17180
C         57.62598        62.83636        -0.80468
C         56.38793        63.58158        -1.24543
C         57.62274        65.68513        -0.81054
C         56.41831        65.02236        -1.04274
C         57.64622        67.10226        -0.49502
C         56.36118        67.81431        -0.44204
C         57.66269        69.66111         0.87564
C         56.38699        69.18590         0.35412
C         57.64636        70.85448         1.74871
C         56.39395        71.61081         1.92898
C         57.63670        73.71040         2.24493
C         56.39783        73.00186         2.16411
C         58.81452        54.99678         0.13080
C         60.07681        57.14354        -0.03023
C         58.90569        56.42802        -0.00686
C         60.06135        58.65749         0.01997
C         58.88193        59.29734        -0.68155
C         60.16928        61.34284        -1.25829
C         58.87677        60.64096        -0.92753
C         60.10596        62.84244        -1.10228
C         58.92507        63.54285        -1.10460
C         60.08094        65.68889        -0.83552
C         58.89975        64.98791        -0.94947
C         60.13323        67.02353        -0.15089
C         58.82194        67.76266        -0.16066
C         60.14415        69.72013         0.69344
C         58.85552        69.07568         0.44585
C         60.16420        71.03332         1.28271
C         58.94475        71.62156         1.86926
C         60.10938        73.78867         2.07396
C         58.88775        73.08576         2.08434
C         61.35795        59.38686        -0.23472
C         62.61640        61.47303        -0.62426
C         61.39677        60.70009        -0.63339
C         62.65375        62.83665        -0.90891
C         61.39151        63.54069        -1.25169
C         62.61816        65.78399        -0.83505
C         61.36344        65.05458        -1.13135
C         62.58577        67.13374        -0.66111
C         61.28212        67.90221        -0.65499
C         62.59708        69.76751         0.47223
C         61.34246        69.15697         0.20503
C         62.60973        71.03240         1.22714
C         61.34620        71.74863         1.42971
C         62.56387        73.87403         1.80097
C         61.35209        73.13963         1.82667
C         63.84564        63.61495        -0.82487
C         65.08349        65.74737        -0.71425
C         63.86986        65.02469        -0.83220
C         65.11589        67.15418        -0.62345
C         63.83968        67.95020        -0.77466
C         65.04928        69.91915         0.16624
C         63.82324        69.20752         0.06319
C         65.07756        71.26794         0.60474
C         63.90453        71.84298         1.26635
C         64.96158        74.06628         1.20062
C         63.80651        73.30695         1.43603
C         66.30156        67.88632        -0.51760
C         67.44705        70.07838        -0.35041
C         66.28690        69.29917        -0.27047
C         67.43173        71.47134        -0.06123
C         66.22230        72.06953         0.42950
C         67.34955        74.23982         0.56537
C         66.17601        73.47216         0.75266
C         68.57889        72.28586        -0.20719
C         68.52498        73.64688         0.10013
O         50.93515        44.30290         2.97830
O         36.58357        64.68464        -2.97377
O         63.46345        71.05391         2.41971
O         37.06666        52.56661        -0.11189
O         48.47308        66.18395        -2.57257
O         47.72322        62.23749        -3.43246
O         44.60315        72.03969        -0.27354
O         57.64606        57.42788        -1.78941
O         53.66902        69.10554        -0.80304
O         49.90444        70.41159         2.98205
O         43.96678        60.26331        -0.33519
O         32.52736        63.03081         0.22985
O         58.45404        70.78638         2.97619
O         49.35976        52.55606         1.04974
O         52.15727        46.35724         2.54351
O         52.07540        64.56698         0.36452
O         46.68227        63.95743        -0.44009
O         43.07158        54.53240        -0.01539
O         35.24255        70.90417        -1.08719
O         46.52251        44.44437         2.91093
O         50.29188        62.22024        -3.38542
O         55.32762        69.50601         2.52874
O         49.80320        65.68599         0.70953
O         32.62369        66.69977        -2.23470
O         38.20042        62.85994        -0.35391
O         40.82272        52.18835        -3.12970
O         44.56396        49.79584         1.23404
O         43.22812        46.65123         1.58253
O         54.71062        60.76564        -2.86322
O         56.30844        69.12871        -1.08397
O         61.44741        64.39002        -2.44427
O         45.98032        41.88576         0.17264
O         43.29596        63.58256        -3.28471
O         53.59302        55.86878         1.11802
O         36.45712        59.84629        -3.63996
O         34.00357        55.62367        -3.53618
O         46.30682        71.83349         2.87731
O         26.80322        68.92801         2.60100
O         27.98566        67.48023        -1.16283
O         55.70711        57.35864         1.18036
O         52.66630        68.77171         2.72344
H         51.81949        68.99375         3.17881
O         47.53752        48.03013        -1.32582
H         47.35233        47.06623        -1.24840
O         49.44455        72.16582        -0.18552
H         48.76085        72.73521        -0.59668
O         60.46080        66.73364         1.24615
H         59.67520        66.32767         1.66943
O         30.49618        70.37511         2.84766
H         29.68532        69.85771         3.04320
O         48.75442        42.51953         3.97386
H         49.50586        43.08177         4.26419
O         46.53864        48.57469         2.16577
H         45.79080        49.16852         2.41627
O         35.53831        58.64942        -0.28270
H         34.77540        58.23636         0.17421
O         59.76871        58.93244         1.45515
H         60.05777        59.84895         1.65207
O         60.99380        68.30333        -2.01342
H         61.85400        68.52474        -2.44129
O         45.17920        67.78190        -2.37234
H         45.23295        68.76014        -2.31261
O         35.29676        75.03129         2.33927
H         35.27391        74.54837         3.19036
O         45.57683        45.50553        -1.09208
H         45.27823        44.59495        -1.31111
O         54.04626        64.05313        -3.29234
H         54.23858        63.23539        -3.80109
O         55.40460        54.47086        -1.69140
H         56.17061        53.90066        -1.91395
O         53.41525        59.73903         0.45460
H         53.60370        58.98231         1.04983
O         48.95018        50.54587        -2.01740
H         48.59116        49.65283        -2.23308
O         60.31957        61.13300        -2.70328
H         60.98511        61.77486        -3.03223
O         34.01765        68.77913         1.66752
H         34.73645        68.13940         1.85406
O         28.76796        62.10384         1.52013
H         28.24787        61.37323         1.91616
O         51.66661        56.03403        -2.68029
H         52.13294        56.79974        -3.09935
O         51.64112        50.36880        -1.72294
H         50.77201        50.51581        -2.17883
O         27.14202        70.08841        -0.80665
H         27.79916        70.58312        -1.33851
O         27.94180        58.46633        -1.18532
H         28.16427        58.26956        -0.25273
O         34.78439        61.75310        -3.81972
H         35.14673        61.00265        -4.34809
O         44.37823        47.77281        -1.77839
H         44.99095        46.99846        -1.83494
O         30.36065        75.06692         2.28729
H         30.32365        75.25761         1.32792
O         56.04475        54.90176         1.90784
H         55.45282        55.64669         2.17225
O         42.64492        39.76695        -0.25656
H         43.51008        40.08373        -0.59431
O         36.48840        50.61260        -3.13928
H         36.46231        49.67103        -3.41096
O         57.53479        62.87456         0.67293
H         58.24764        62.30470         1.03217
O         42.89526        66.35363         1.19262
H         42.71719        67.08005         1.82921
O         40.33789        61.76512        -3.82922
H         41.16823        62.25490        -4.01712
O         40.13455        69.10526         2.30389
H         39.36209        69.53568         2.72937
O         27.00592        64.93387        -1.72094
H         27.33023        65.63411        -2.32868
O         53.70378        71.24553         3.76411
H         53.68855        70.26321         3.85519
O         32.71087        70.25445        -1.43676
H         33.57585        70.67728        -1.67049
O         53.17972        58.25422        -2.90994
H         53.67817        59.03841        -3.23972
O         63.82473        68.43211        -2.17965
H         64.68696        68.87433        -2.34070
O         43.25589        52.93185        -3.26161
H         42.46229        52.74522        -3.81896
H         22.94016        74.59459         2.99717
H         25.41062        74.73167         2.65304
H         27.93421        74.76007         2.51032
H         30.47564        73.47260         3.57357
H         32.82047        74.82448         2.20213
H         35.23675        74.67278         0.32132
H         37.74030        74.91781         1.95276
H         40.20472        74.85310         2.14564
H         42.62828        74.81898         2.35774
H         45.12882        74.84583         2.40362
H         47.74494        74.74653         2.65969
H         50.20387        74.74934         2.61535
H         52.67514        74.81486         2.27893
H         55.14556        74.78650         2.32251
H         57.60675        74.79630         2.42066
H         60.10528        74.87336         2.26017
H         62.52130        74.95580         2.00053
H         64.93138        75.15548         1.35595
H         67.33246        75.31429         0.79793
H         22.31224        68.65883         2.73396
H         21.03149        70.71766         3.15906
H         20.92303        73.19398         3.36299
H         24.91092        64.52903         1.87650
H         23.65514        66.57950         2.44807
H         27.00746        60.64404        -0.50862
H         26.19809        62.54460         1.36971
H         29.37319        56.58756        -1.84185
H         28.72194        59.43736        -2.81697
H         31.80547        52.29757        -1.55887
H         30.58961        54.46182        -1.80207
H         34.27587        48.10643        -0.67370
H         33.03463        50.21507        -1.16880
H         36.71322        43.94624         0.25140
H         35.49798        46.03098        -0.28897
H         39.09999        39.82522         1.68180
H         37.91203        41.86522         0.87188
H         41.48452        35.71269         3.02332
H         40.29217        37.78376         2.40228
H         44.79882        32.51156         4.35106
H         42.67710        33.67906         3.78135
H         46.98665        33.67604         4.14397
H         48.29419        35.70798         3.57788
H         49.60468        37.71066         2.92884
H         50.86701        39.72062         2.10655
H         52.02554        41.60963         1.28210
H         53.50002        43.73071         0.81942
H         54.78831        46.05443         0.49074
H         55.97582        48.11524         0.87152
H         57.22741        50.25519         0.73611
H         58.47755        52.33078         0.31477
H         59.74750        54.41070         0.11683
H         61.03294        56.63061         0.15795
H         62.28193        58.91497         0.13861
H         63.54333        60.97129        -0.30447
H         64.79961        63.08154        -0.69007
H         66.03208        65.19059        -0.66221
H         67.27184        67.37057        -0.58430
H         68.39044        69.61091        -0.67037
H         69.51607        71.84026        -0.57034
H         69.42550        74.26425        -0.02712
