         344
 CSIRO Nanostructure Databank - Neutral Graphene Oxide Data Set
C          1.43631         3.62067        -1.10384
C          0.43439         4.41856        -1.57325
C          1.18733         6.40874        -0.33127
C          0.23961         5.75930        -1.12783
C          1.18166         7.81702        -0.09195
C         -0.00361         8.60944        -0.31206
C          1.11367        10.59829         0.68558
C         -0.04194         9.93693        -0.02747
C          1.16806        12.11990         0.49031
C         -0.07165        12.84536         0.95059
C          1.17969        14.95049         0.82199
C         -0.05341        14.18975         1.03270
C          1.18422        16.33883         0.60028
C         -0.03478        17.13492         0.58231
C          1.21500        18.99226        -0.47841
C         -0.02768        18.41491         0.15772
C          1.22186        20.49400        -0.57969
C          0.06167        21.13087        -0.99653
C          1.19891        23.27838        -1.02069
C          0.04364        22.51770        -1.19335
C          1.06432        24.75134        -1.33346
C          0.01748        25.39555        -0.44237
C          1.17990        27.54886        -0.31844
C          0.03593        26.70044        -0.08751
C          1.21163        28.86873         0.09064
C          3.70834         3.45971        -0.14738
C          2.34366         4.08645         0.00035
C          3.67115         6.37270         0.14105
C          2.36134         5.61598         0.11440
C          3.67631         7.83873         0.02674
C          2.42485         8.53606         0.13389
C          3.64902        10.73624        -0.00595
C          2.41255         9.92859         0.30159
C          3.68776        12.10737         0.65034
C          2.40888        12.75023         1.15893
C          3.62975        14.94569         0.94972
C          2.42105        14.25284         0.91547
C          3.65732        16.34853         0.73485
C          2.43469        17.03481         0.47625
C          3.63791        19.17669         0.27844
C          2.45529        18.41588         0.14652
C          3.61982        20.59402         0.03421
C          2.42537        21.24134        -0.37885
C          3.66370        23.38795        -0.70105
C          2.41898        22.66164        -0.64893
C          3.71445        24.73762        -1.39973
C          2.39570        25.51962        -1.34025
C          3.67283        27.66932        -0.69558
C          2.40031        26.94972        -0.89526
C          3.60809        29.05113        -0.38198
C          2.39653        29.63747        -0.02113
C          6.17520         3.50427        -0.20453
C          4.91755         4.14536        -0.15602
C          6.22403         6.39277        -0.09103
C          4.90660         5.62656        -0.21380
C          6.15368         7.82976         0.22068
C          4.91699         8.53325         0.12957
C          6.12394        10.64484         0.36431
C          4.92504         9.96034         0.21130
C          6.14672        12.15721         0.27414
C          4.85108        12.78502         0.73269
C          6.16164        14.94900         0.97907
C          4.88655        14.19158         1.31625
C          6.15065        16.37375         0.84177
C          4.88633        17.09041         0.74945
C          6.11554        19.23891         0.72931
C          4.85311        18.48494         0.61907
C          6.11456        20.74765         0.58671
C          4.77489        21.48426         0.46077
C          6.12063        23.43985        -0.48344
C          4.85165        22.77355        -0.33076
C          6.12468        24.86153        -0.73905
C          4.92130        25.55533        -0.95224
C          6.14516        27.71424        -0.78498
C          4.89921        26.97992        -0.85450
C          6.13751        29.15788        -0.58552
C          4.83397        29.91914        -0.47725
C          8.59989         3.47746         0.16419
C          7.41334         4.20553         0.01253
C          8.59209         6.31073         0.83397
C          7.42568         5.62514         0.17388
C          8.61758         7.79765         0.54022
C          7.36733         8.51979         0.42319
C          8.59813        10.66783         0.55666
C          7.35134         9.94024         0.46634
C          8.60455        12.04117         0.71642
C          7.32241        12.74419         1.06140
C          8.60955        14.92742         0.73904
C          7.36135        14.24706         0.90515
C          8.61235        16.35629         0.65144
C          7.37023        17.07322         0.69247
C          8.56765        19.23334         0.42343
C          7.38407        18.51183         0.57145
C          8.55057        20.63019         0.10472
C          7.36515        21.36526         0.09613
C          8.59605        23.45270        -0.45947
C          7.34308        22.75404        -0.30489
C          8.58314        24.87166        -0.61640
C          7.37319        25.57795        -0.70475
C          8.62527        27.75035        -0.90644
C          7.35263        27.01506        -0.81845
C          8.60636        29.27243        -0.68247
C          7.29191        29.86918        -0.43154
C         11.07775         3.47551        -0.18167
C          9.90253         4.09160         0.59124
C         11.08466         6.28528         0.62090
C          9.90804         5.60904         0.55321
C         11.09919         7.76718         0.74020
C          9.81702         8.49311         0.51547
C         11.04676        10.64667         0.30576
C          9.83993         9.93074         0.46156
C         11.08724        12.05349         0.43195
C          9.88758        12.75258         1.01998
C         11.05208        14.92290         0.55452
C          9.84179        14.22606         0.71289
C         11.05389        16.35156         0.51418
C          9.84232        17.05520         0.57074
C         11.11189        19.20333         0.21337
C          9.86927        18.55054         0.76725
C         11.09603        20.56434        -0.12035
C          9.79869        21.24312        -0.50512
C         11.07300        23.44254        -0.36916
C          9.82776        22.74798        -0.40526
C         11.09674        24.85124        -0.41013
C          9.88522        25.57229        -0.91646
C         11.04118        27.73598        -0.33487
C          9.87703        27.04500        -0.62466
C         11.03438        29.19235        -0.14491
C          9.83777        29.89693        -0.21097
C         13.58493         3.53518        -0.18618
C         12.40139         4.15677         0.09321
C         13.69640         6.33907         0.43389
C         12.38185         5.54980         0.57857
C         13.66120         7.80218         0.32520
C         12.38791         8.52647         0.56438
C         13.52202        10.64105        -0.26953
C         12.23418         9.84675        -0.18096
C         13.50998        12.12438        -0.16968
C         12.25958        12.80759         0.20313
C         13.54400        14.92084         0.43278
C         12.29580        14.20592         0.40534
C         13.53617        16.33258         0.51130
C         12.31753        17.06029         0.45035
C         13.58684        19.10730        -0.23974
C         12.31549        18.46298         0.24347
C         13.56545        20.60513        -0.12400
C         12.33660        21.28701        -0.21642
C         13.54197        23.43278        -0.24110
C         12.33012        22.72539        -0.26869
C         13.54675        24.87601        -0.11253
C         12.28466        25.58702        -0.15314
C         13.43698        27.72169         0.36822
C         12.25142        26.99814        -0.07405
C         13.47813        29.19718         0.28541
C         12.26079        29.87570         0.12287
C         16.04051         3.57360        -0.62330
C         14.85585         4.23655        -0.25089
C         16.03875         6.39641        -0.41424
C         14.87685         5.64667        -0.09018
C         16.03304         7.82492        -0.33529
C         14.81266         8.49648         0.00914
C         16.02721        10.69510        -0.34220
C         14.81632         9.98780         0.17149
C         15.99637        12.09051        -0.04296
C         14.79452        12.81191         0.10155
C         16.06363        14.89916         0.41945
C         14.79135        14.19624         0.37916
C         16.08191        16.35026         0.51971
C         14.80195        17.07839         0.85669
C         16.00503        19.19316         0.39122
C         14.83443        18.49728         0.34749
C         16.03448        20.61995         0.11552
C         14.79751        21.30920        -0.07528
C         16.02580        23.43227        -0.19008
C         14.79728        22.73464        -0.17072
C         16.01766        24.90412        -0.51195
C         14.74904        25.56391        -0.05520
C         16.02522        27.73821         0.23385
C         14.78136        26.95990         0.34965
C         15.96825        29.16364         0.40244
C         14.71362        29.85127         0.42115
C         18.46432         3.62609        -1.17181
C         17.24184         4.28797        -0.84941
C         18.41965         6.46410        -1.05956
C         17.23574         5.71602        -0.77829
C         18.39475         7.88921        -1.03158
C         17.21587         8.56505        -0.66197
C         18.49002        10.72499        -0.54847
C         17.22390        10.01045        -0.55422
C         18.53392        12.05842        -0.07034
C         17.26812        12.70687         0.44454
C         18.55566        14.90258         0.07817
C         17.25304        14.20420         0.34356
C         18.53707        16.37374         0.42095
C         17.27227        17.04598         0.55101
C         18.53192        19.23201         0.52180
C         17.25901        18.51877         0.91381
C         18.50916        20.63405         0.33217
C         17.25028        21.33382         0.16812
C         18.49498        23.48662        -0.02356
C         17.24962        22.75034        -0.03645
C         18.47266        24.93788        -0.08690
C         17.28114        25.62873        -0.11540
C         18.47416        27.80580         0.14773
C         17.24545        27.07260         0.04995
C         18.42629        29.22062         0.36857
C         17.17938        29.87868         0.46535
C         19.62533         4.34915        -1.38899
C         20.84819         6.52269        -1.51521
C         19.63060         5.76258        -1.33929
C         20.84972         7.87657        -1.54760
C         19.57458         8.68195        -1.56356
C         20.88600        10.77544        -0.86245
C         19.68018        10.07076        -0.94832
C         20.93069        12.08043        -0.35896
C         19.76054        12.73695         0.05185
C         21.00463        14.93652         0.54358
C         19.74037        14.12349         0.69323
C         20.97950        16.28306         0.45276
C         19.74106        17.05702         0.47672
C         20.95487        19.25886         0.35714
C         19.75027        18.52089         0.48547
C         20.94694        20.64048         0.29903
C         19.73028        21.36548         0.26988
C         20.90240        23.58507         0.47053
C         19.70482        22.80922         0.18742
C         20.93238        24.93063         0.36089
C         19.78886        25.66857        -0.28235
C         20.89903        27.89931         0.11511
C         19.73125        27.14879         0.03663
C         20.85626        29.29469         0.33193
C         19.64860        29.94761         0.46049
O         14.04270        27.20574         1.59685
O         13.22813         5.79908         1.72994
O         13.55613        11.42902        -1.50008
O         15.05986        10.34059         1.55526
O          5.55122         6.12598        -1.40096
O          8.71341        28.68103        -2.03780
O          2.96618         5.98489         1.38723
O          2.32264        26.55703        -2.37453
O          6.21660        20.14210         1.92048
O         11.81800         8.36833         1.88963
O         11.92101         9.41722        -1.54056
H         12.16869        10.16981        -2.12825
O          0.88884        10.36750         2.10833
H          0.93559         9.40106         2.26540
O          3.94732        24.44791        -2.80920
H          3.67219        25.25129        -3.30598
O          2.34993        12.55471         2.58583
H          3.13211        13.02605         2.96522
O         18.75530        14.82112        -1.37483
H         18.03474        15.32690        -1.80617
O         17.20834        18.58816         2.37141
H         16.35711        18.15982         2.64356
O          1.28093        12.33941        -0.94846
H          1.22280        13.30598        -1.10810
O         10.07118         3.71877         1.99079
H          9.41506         4.24636         2.50281
O          9.66157        20.95995        -1.95270
H         10.37237        21.45115        -2.41802
O          1.78063         3.59572         1.25716
H          2.19628         4.12529         1.97388
O          0.50142        24.81822        -2.67144
H          0.77346        25.69356        -3.03671
O         19.54019        13.95105         2.11252
H         18.79372        13.31992         2.25511
O         10.01306        12.66743         2.51168
H         10.39413        11.78556         2.71790
O          8.39926         6.15644         2.30017
H          9.06653         6.72689         2.74108
O         15.99316        24.99970        -1.99062
H         16.87748        24.72568        -2.31574
O          6.33552        12.49643        -1.12295
H          5.59995        12.06899        -1.61935
O         17.18183        12.37903         1.89676
H         16.55999        11.60072         1.98927
O         10.01260        25.49508        -2.39929
H          9.39621        26.15917        -2.77931
O         13.64197        18.81168        -1.69322
H         14.38728        19.32994        -2.06555
O          4.40401        21.92179         1.81129
H          4.79328        21.25300         2.42602
O         20.03452        25.59572        -1.73669
H         20.20887        24.65501        -1.95320
O          3.61057        11.00743        -1.46103
H          2.74081        11.45693        -1.62542
O         10.77587         3.59961        -1.57836
H         11.53128         3.25066        -2.09396
O          4.84867        14.02620         2.77303
H          5.63685        13.46500         2.99935
O         14.78134        17.18969         2.33504
H         14.77779        16.27835         2.69966
O          9.99777        18.74323         2.22672
H          9.18585        18.38393         2.64465
O         19.28632         8.92245        -2.99192
H         19.18853         8.04620        -3.42134
O          7.09617        12.46327         2.48602
H          7.96552        12.61627         2.93095
O          4.88361        30.85510         0.60990
H          4.93294        30.35019         1.44712
O          1.21054        18.51295        -1.87584
H          1.21574        17.53254        -1.84415
H          1.56299         2.59906        -1.48872
H         -0.25498         4.02825        -2.33649
H         -0.61045         6.32069        -1.53831
H         -0.90137         8.11885        -0.71549
H         -0.96575        10.50999        -0.19448
H         -0.99461        12.28297         1.15218
H         -0.96950        14.73489         1.30196
H         -0.96555        16.69037         0.96276
H         -0.95549        19.00471         0.17422
H         -0.84853        20.54886        -1.19442
H         -0.87733        23.00569        -1.53895
H         -0.87434        24.79195        -0.21595
H         -0.81904        27.13522         0.45325
H          0.30587        29.32927         0.51114
H          3.73246         2.35913        -0.14459
H          2.38128        30.70258         0.24805
H          6.20738         2.40600        -0.25574
H          4.72919        30.54023        -1.41116
H          8.55931         2.37867         0.11377
H          7.23469        30.92961        -0.14190
H         11.15794         2.38361         0.08728
H          9.81139        30.95453         0.09170
H         13.57552         2.47806        -0.49801
H         12.25142        30.97574         0.14866
H         16.03518         2.47952        -0.74060
H         14.72828        30.95136         0.45263
H         18.48042         2.52796        -1.22435
H         17.15671        30.97083         0.59613
H         20.56529         3.82159        -1.60778
H         21.79477         5.96766        -1.60454
H         21.80201         8.40256        -1.70769
H         21.82736        10.30947        -1.18543
H         21.90280        12.58835        -0.29375
H         21.97489        14.42452         0.62906
H         21.93572        16.82413         0.41340
H         21.92087        18.73814         0.32529
H         21.90524        21.17288         0.22917
H         21.78098        23.06042         0.87228
H         21.84259        25.47962         0.64224
H         21.87797        27.41480        -0.00499
H         21.79791        29.85810         0.39215
H         19.61468        31.03386         0.62706
