         470
 CSIRO Nanostructure Databank - Neutral Graphene Oxide Data Set
C         37.54662        49.73016         1.29165
C         36.36714        50.37836         1.64773
C         37.58705        52.44983         1.86354
C         36.38787        51.74627         1.93609
C         39.96267        48.58523        -0.10339
C         39.97293        49.67062         0.79120
C         38.77529        50.41556         1.22977
C         40.01030        52.65275         1.41094
C         38.79743        51.81448         1.52358
C         40.00488        53.99128         0.98015
C         42.40826        48.44234        -0.06663
C         41.15941        47.92026        -0.42423
C         42.45403        49.66378         0.66168
C         41.24130        50.06979         1.25149
C         42.52332        52.70216         1.36877
C         41.27978        52.12685         1.70689
C         42.47963        54.09726         1.02666
C         41.20728        54.69252         0.87073
C         44.85212        45.86071        -1.35600
C         43.72117        46.40939        -0.90046
C         44.88312        48.63413        -0.39196
C         43.72196        47.69059        -0.11334
C         44.87750        49.88508         0.18079
C         43.66784        50.45449         0.78323
C         44.98355        52.37619         1.46770
C         43.68842        51.80491         1.22442
C         44.89697        54.62276         1.40876
C         43.66957        54.95120         0.83024
C         44.74606        56.99449        -0.04313
C         43.63083        56.17996         0.10196
C         47.41298        44.61367        -0.70180
C         47.39945        45.91860        -1.22924
C         46.12805        46.62205        -1.41654
C         47.40083        48.82184        -0.83734
C         46.10459        48.11222        -1.05429
C         47.36933        50.08695        -0.33127
C         46.05705        50.80450        -0.08079
C         47.44194        52.47814         1.23818
C         46.17215        51.85810         0.99554
C         47.34229        54.67810         1.28478
C         46.10645        55.31339         1.07728
C         47.24767        57.32647         0.20146
C         46.02938        56.57806         0.39016
C         47.33397        58.68427        -0.10920
C         49.88165        44.42710        -0.92665
C         48.57288        43.88854        -0.53187
C         49.95628        45.88222        -1.33626
C         48.65878        46.65032        -1.45175
C         50.04222        48.87779        -1.17926
C         48.66876        48.16460        -1.30159
C         49.92321        50.27089        -0.58325
C         48.60098        50.91275        -0.25585
C         49.83141        52.92362         0.61212
C         48.60781        52.12882         0.59392
C         49.84286        54.35175         0.72352
C         48.55163        55.09822         0.59868
C         49.78976        57.31390         0.30872
C         48.51192        56.55778         0.16765
C         49.80551        58.71637        -0.15409
C         48.57218        59.33756        -0.34037
C         52.28254        41.62110         0.00862
C         51.08581        42.39192        -0.16470
C         52.46092        44.31341        -0.91860
C         51.12083        43.70839        -0.52490
C         52.50414        45.84989        -0.81811
C         51.24415        46.64073        -1.06882
C         52.29432        48.64686        -0.02819
C         51.16266        48.03357        -0.55605
C         52.24298        50.07430         0.28334
C         51.11078        50.83531         0.08053
C         52.28180        52.95172         0.54325
C         51.05736        52.24098         0.43531
C         52.28468        54.36848         0.51372
C         51.04442        55.06160         0.56548
C         52.32219        57.23400         0.13697
C         51.06634        56.55004         0.52670
C         52.31006        58.55424        -0.26269
C         51.09544        59.35290        -0.32787
C         52.47478        61.35223        -0.78668
C         51.21464        60.72136        -0.54976
C         54.84253        39.97030         0.06143
C         54.73655        41.41589         0.33208
C         53.52778        42.19910        -0.04928
C         54.79888        44.33331         0.00515
C         53.63550        43.63217        -0.24636
C         54.80311        45.77561         0.15821
C         53.61881        46.51761        -0.09404
C         54.70981        48.53574         0.73535
C         53.53714        47.89616         0.22481
C         54.65942        49.96375         1.14160
C         53.41041        50.75446         0.88899
C         54.70524        52.91792         0.73593
C         53.50169        52.22670         0.70608
C         54.75695        54.33503         0.50573
C         53.53812        55.06740         0.41740
C         54.80250        57.14227         0.18768
C         53.56196        56.47530         0.21624
C         54.79156        58.62127         0.01214
C         53.60680        59.13468        -0.80717
C         54.94598        61.25230        -1.36200
C         53.63340        60.64191        -0.91482
C         54.99411        62.75136        -1.43393
C         57.30532        40.04874         0.14592
C         56.04456        39.34078         0.00135
C         57.28562        41.41242         0.36516
C         56.02713        42.16430         0.47412
C         57.26594        44.33442         0.65895
C         56.11780        43.60267         0.00603
C         57.18831        45.69504         0.90825
C         55.97257        46.43063         0.65280
C         57.17912        48.54034         1.19484
C         55.92402        47.83418         0.89766
C         57.20853        49.96087         1.16335
C         55.94561        50.72238         1.27297
C         57.22502        52.89543         0.70092
C         55.96182        52.22094         1.05843
C         57.27086        54.25821         0.46837
C         56.01289        55.01323         0.42651
C         57.29316        57.14495         0.38807
C         56.00544        56.42053         0.30798
C         57.36432        58.65144         0.35842
C         56.08561        59.40295         0.05147
C         57.41291        61.31457        -0.90350
C         56.16229        60.68789        -0.66000
C         57.44021        62.70744        -1.32967
C         56.19612        63.39490        -1.48686
C         60.04258        37.44257        -0.43695
C         58.79479        38.04054        -0.06921
C         59.67407        40.31622        -0.63575
C         58.58820        39.39336        -0.11396
C         59.84398        41.51741         0.28697
C         58.51982        42.16366         0.66992
C         59.70933        44.30761         1.04767
C         58.48586        43.61363         0.84960
C         59.68974        45.69863         1.32719
C         58.35655        46.36353         1.60081
C         59.62410        48.55009         1.48566
C         58.39068        47.84929         1.35776
C         59.64616        49.96835         1.38287
C         58.41680        50.66059         1.18807
C         59.75137        52.79602         0.73617
C         58.44008        52.07545         0.74396
C         59.78139        54.25426         0.48578
C         58.55127        54.95109         0.24780
C         59.55075        57.09423        -0.56014
C         58.49259        56.35707         0.02792
C         59.76725        58.45745        -0.45966
C         58.71754        59.37271         0.15022
C         59.87196        61.17811        -1.32633
C         58.62254        60.62636        -0.68571
C         59.88623        62.68333        -1.23406
C         58.70290        63.39798        -1.32632
C         59.95301        65.51133        -1.57428
C         58.79067        64.86526        -1.36064
C         62.45697        36.19895        -1.52754
C         62.39443        37.56550        -1.24314
C         61.12077        38.17330        -0.89695
C         62.29805        40.42884        -0.79576
C         61.01318        39.64744        -0.95318
C         62.29188        41.77707        -0.16611
C         61.05181        42.34827         0.26270
C         62.17509        44.37243         1.08664
C         60.97783        43.65391         0.81922
C         62.16024        45.73438         1.43673
C         60.89315        46.41651         1.48206
C         62.08009        48.56451         1.82553
C         60.87181        47.85015         1.62308
C         62.05266        50.00268         1.92142
C         60.87366        50.68120         1.61674
C         62.04273        52.97032         1.89849
C         60.82612        52.16257         1.56153
C         62.19270        54.28927         1.24995
C         61.08509        54.84140         0.52469
C         62.42057        56.87980         0.10905
C         61.36811        56.02718        -0.19891
C         62.41095        58.27162        -0.37232
C         61.09055        59.03572        -0.72597
C         62.31628        61.19317        -0.74699
C         61.13949        60.52153        -0.81561
C         62.40824        62.59523        -1.21194
C         61.17257        63.44163        -1.01412
C         62.53871        65.47355        -1.58834
C         61.22590        64.73619        -1.85135
C         62.59851        66.86766        -1.72084
C         64.86455        36.29579        -1.88641
C         63.66650        35.57864        -1.85402
C         64.87962        37.68549        -1.54161
C         63.61542        38.34881        -1.25693
C         64.79410        40.51415        -0.84120
C         63.57939        39.69892        -0.88691
C         64.78286        41.80589        -0.11590
C         63.49762        42.39863         0.17020
C         64.70733        44.36603         1.27365
C         63.44042        43.63010         0.98469
C         64.65637        45.80341         1.64012
C         63.38588        46.46764         1.71529
C         64.52910        48.58483         2.40216
C         63.32006        47.86040         1.95321
C         64.59237        50.06093         2.38479
C         63.27051        50.73953         2.36285
C         64.56133        52.96766         2.30346
C         63.27044        52.24570         2.35559
C         64.55202        54.29820         1.96679
C         63.40611        54.97763         1.36078
C         64.72418        57.06661         0.92615
C         63.52091        56.33784         0.86155
C         64.81583        58.43927         0.50429
C         63.54423        59.11994         0.13324
C         64.81413        61.33328        -0.17690
C         63.53016        60.59452        -0.14369
C         64.93085        62.60241        -0.70215
C         63.72932        63.28003        -1.26346
C         65.00262        65.40966        -1.44685
C         63.74436        64.75988        -1.39027
C         65.02602        66.81135        -1.65752
C         63.82309        67.52648        -1.73953
C         67.41263        33.56723        -2.62123
C         66.21199        34.17693        -2.45910
C         67.43716        36.38202        -2.07109
C         66.11148        35.63810        -2.33367
C         67.37232        37.71309        -1.44694
C         66.11663        38.36914        -1.36559
C         67.33652        40.41896        -0.48516
C         66.13024        39.81017        -1.06317
C         67.26783        41.73912         0.06727
C         65.98619        42.42535         0.20676
C         67.14675        44.38040         1.37349
C         65.96331        43.90030         0.56537
C         67.13897        45.83095         1.72913
C         65.87492        46.47181         1.87469
C         67.11336        48.62777         2.45802
C         65.86101        47.84561         2.40422
C         67.06147        50.05310         2.60762
C         65.78327        50.74940         2.56149
C         67.09537        52.98921         2.70235
C         65.76966        52.24752         2.91226
C         67.01695        54.37851         2.57220
C         65.76617        55.08799         2.23107
C         67.20577        57.09480         1.40802
C         65.86438        56.48878         1.65908
C         67.23669        58.55598         1.02811
C         65.95564        59.20991         0.70356
C         67.30686        61.38495         0.40293
C         65.95834        60.67800         0.49078
C         67.38742        62.67890        -0.31615
C         66.20001        63.31528        -0.73664
C         67.50112        65.28151        -1.44067
C         66.25258        64.66221        -1.24968
C         67.56683        66.62988        -2.05365
C         66.29849        67.46806        -2.03879
C         67.62230        69.56398        -1.91310
C         66.43711        68.92869        -1.88175
C         69.99746        32.35645        -3.34927
C         69.90622        33.56442        -2.61327
C         68.67628        34.25044        -2.43325
C         69.86591        36.25768        -1.55790
C         68.67320        35.60161        -1.99370
C         69.81937        37.62221        -1.10435
C         68.57344        38.33884        -1.03306
C         69.75584        40.31579        -0.07070
C         68.54489        39.69116        -0.50967
C         69.71375        41.64107         0.47257
C         68.45798        42.31735         0.56237
C         69.67614        44.35869         1.47853
C         68.40666        43.60195         1.30284
C         69.63182        45.79276         1.88909
C         68.32570        46.49781         2.08400
C         69.57086        48.55839         2.82951
C         68.31276        47.87763         2.44284
C         69.55735        50.06357         2.82235
C         68.27805        50.80836         2.70356
C         69.64211        52.87212         2.53672
C         68.33424        52.22918         2.74574
C         69.89378        54.23844         2.77351
C         68.10784        55.30231         2.79754
C         69.62122        57.22160         2.27560
C         68.32562        56.48827         2.13624
C         69.65504        58.70202         1.89802
C         68.47811        59.34796         1.23007
C         69.82933        61.25521         0.38353
C         68.53837        60.60558         0.68567
C         69.85851        62.66628        -0.04872
C         68.65345        63.32342        -0.46015
C         69.98269        65.29520        -1.13088
C         68.72225        64.64122        -1.03128
C         70.17820        66.57730        -1.92591
C         68.88790        67.35402        -2.17469
C         70.16857        69.60031        -1.91223
C         68.89861        68.86517        -2.17192
C         70.21573        70.99243        -2.06357
C         72.42358        32.59047        -3.49787
C         71.22048        31.85621        -3.75644
C         72.40632        33.70287        -2.71722
C         71.16125        34.09031        -1.95992
C         72.25478        36.18713        -1.11902
C         71.10003        35.55071        -1.57052
C         72.21979        37.51131        -0.67900
C         71.02337        38.24602        -0.66255
C         72.16102        40.24847         0.28976
C         70.99510        39.61334        -0.15411
C         72.11491        41.52633         0.85713
C         70.92338        42.23452         0.95919
C         72.13044        44.41823         1.50577
C         70.92850        43.53001         1.75343
C         72.11083        45.70637         1.87235
C         70.90654        46.28908         2.58769
C         72.08707        48.60546         2.38244
C         70.89475        47.82191         2.77795
C         72.04181        49.92434         2.11597
C         70.86399        50.75010         2.42913
C         71.87568        52.87084         1.50159
C         70.78323        52.16696         2.05082
C         71.91699        54.25945         1.47336
C         70.92035        55.00667         2.15872
C         72.09773        57.15672         1.88997
C         70.89643        56.45112         2.20124
C         72.17532        58.50423         1.69846
C         71.00987        59.44093         1.88098
C         72.25166        61.50077         1.07102
C         71.09245        60.61290         0.91082
C         72.25346        62.74726         0.54172
C         71.08691        63.34177        -0.07805
C         72.38038        65.39503        -0.62080
C         71.15032        64.67497        -0.62472
C         72.42899        66.75746        -0.90345
C         71.31662        67.44364        -1.39560
C         72.53670        69.62492        -1.35542
C         71.34600        68.88152        -1.56639
C         72.56279        71.00611        -1.49739
C         71.40140        71.69870        -1.85692
O         64.17758        43.46369         2.27685
O         69.42230        58.28495         3.29275
O         47.45162        53.58510         2.13883
O         61.61267        40.29634        -2.11958
O         63.05617        51.52046         3.61274
O         60.51161        56.34016        -1.25815
O         63.17661        60.06121         1.19860
O         65.07420        47.99936         3.63541
O         65.50556        40.61426        -2.12825
O         66.80029        36.35418        -3.39999
O         50.02328        44.85779        -2.36691
O         59.33117        41.39546         1.64236
O         46.00092        47.65822        -2.44543
O         48.40732        55.49571        -0.82712
O         66.47457        61.45901         1.62157
O         49.27348        51.16823        -1.53606
O         44.98882        53.52962         2.28012
O         70.43979        50.60562         3.83528
O         60.93110        52.86784         2.84741
O         67.54190        43.52891         2.49671
O         55.23851        41.86601         1.65901
O         61.97593        58.45394        -1.74414
O         69.84976        45.41500         0.47585
O         65.55102        56.27632         3.07561
O         70.68449        60.35963        -0.45365
O         68.95519        68.09962        -3.43153
O         57.37908        57.95552         1.64033
O         63.12377        62.66558        -2.49682
O         53.72896        50.24405         2.23881
O         48.57750        47.54161        -2.61978
O         50.36264        57.16689         1.66718
O         41.31849        50.89435         2.38064
O         66.78570        66.82848        -3.26849
O         70.24385        48.10338         4.06224
O         55.97579        51.63333         2.41749
O         55.12059        59.41327         1.18249
O         59.31580        52.10465        -0.47525
O         52.25249        46.48467        -2.12241
O         69.09031        54.89046         3.70897
O         67.48746        57.44661         0.02372
O         59.78008        60.84053        -2.76147
H         60.57890        61.20149        -3.20313
O         50.54286        49.09781        -2.51523
H         50.16499        48.39052        -3.09122
O         65.57746        52.28912         4.35397
H         64.67596        51.92331         4.53342
O         71.19765        60.06444         3.18169
H         70.79036        59.45544         3.84395
O         61.22492        63.82110         0.39166
H         60.35240        64.19434         0.63896
O         55.11144        60.79341        -2.78190
H         55.94112        61.19794        -3.12032
O         61.20962        64.40881        -3.25914
H         62.01738        63.86777        -3.43769
O         56.48123        43.47955        -1.41133
H         56.31403        44.34043        -1.84971
O         43.93124        47.23482         1.27533
H         43.77082        47.99985         1.86912
O         65.98064        44.63150        -0.69745
H         66.68252        44.25369        -1.26829
O         52.63976        43.96558        -2.32051
H         51.89846        44.40440        -2.80640
O         45.75774        51.53795        -1.31322
H         45.89596        50.92862        -2.06987
O         71.24840        33.35837        -0.66903
H         71.31156        32.40377        -0.88803
O         70.64235        66.12764        -3.23970
H         70.36366        66.82281        -3.88128
O         59.19036        59.79680         1.45858
H         58.78903        59.18412         2.11918
O         53.74016        58.57091        -2.14589
H         54.21703        59.23084        -2.70777
O         59.14740        40.85178        -1.87909
H         59.91065        40.94757        -2.49751
O         70.90787        45.70526         3.91741
H         70.47619        46.36622         4.51593
O         58.10485        46.19640         3.04319
H         58.86424        46.58788         3.52511
O         70.91879        43.10997         3.13623
H         70.93218        43.92719         3.69704
H         37.52431        48.65373         1.06954
H         35.42544        49.81527         1.70229
H         37.59509        53.52442         2.09525
H         35.46243        52.26617         2.21923
H         39.01234        48.20666        -0.50510
H         39.05953        54.50005         0.74613
H         41.10194        46.99374        -1.01186
H         41.15176        55.75703         0.60669
H         44.83143        44.87403        -1.84378
H         42.78562        45.83258        -0.93392
H         44.64514        57.94505        -0.58506
H         42.68756        56.50839        -0.35545
H         46.45316        44.14801        -0.43441
H         46.41169        59.27739        -0.19159
H         48.51376        42.88887        -0.08489
H         48.53723        60.39176        -0.64973
H         52.17999        40.55393         0.24882
H         50.12903        41.87527        -0.00676
H         52.47261        62.44513        -0.90418
H         50.31824        61.35647        -0.55170
H         53.92519        39.40718        -0.16620
H         54.07042        63.31753        -1.61248
H         56.07673        38.26684        -0.23361
H         56.20537        64.48123        -1.65431
H         60.12870        36.35236        -0.32998
H         57.99292        37.37414         0.27985
H         59.95304        66.60975        -1.62594
H         57.87204        65.45133        -1.21200
H         61.53828        35.59765        -1.54055
H         61.68311        67.45378        -1.87357
H         63.65116        34.51364        -2.11943
H         63.83511        68.61119        -1.90945
H         67.43138        32.47799        -2.76682
H         65.29866        33.56635        -2.44816
H         67.65282        70.64162        -1.69810
H         65.53786        69.50842        -1.62880
H         69.08059        31.85874        -3.69656
H         69.31366        71.54238        -2.36468
H         73.35764        32.26215        -3.97618
H         71.26652        30.94516        -4.36811
H         73.33772        34.25886        -2.53960
H         73.20921        35.64489        -1.08565
H         73.15576        37.96209        -0.32606
H         73.13313        39.74240         0.23541
H         73.04336        41.95777         1.25515
H         73.02670        44.00669         1.01763
H         73.00365        46.32111         1.69492
H         73.02857        48.07387         2.19190
H         72.94412        50.42540         1.73700
H         72.71625        52.30865         1.07227
H         72.74720        54.76417         0.96260
H         73.02544        56.57199         1.80704
H         73.15788        58.95898         1.50635
H         73.10676        61.15216         1.66677
H         73.15369        63.36014         0.67640
H         73.30361        64.91198        -0.27986
H         73.36589        67.28903        -0.68819
H         73.47048        69.11096        -1.09382
H         73.50188        71.55327        -1.33652
H         71.42179        72.78935        -1.98444
