         260
 CSIRO Nanostructure Databank - Neutral Graphene Oxide Data Set
C         30.73560        31.91176         2.62148
C         30.78736        33.17104         2.51071
C         30.62562        36.25271         1.50064
C         30.50657        37.33153         0.91672
C         30.38235        40.44787         0.00496
C         30.40267        41.67785        -0.08182
C         32.65474        28.99572         1.27942
C         31.75151        29.65141         1.81983
C         32.92736        31.73543         1.72153
C         31.73095        31.04513         2.15220
C         32.96008        33.15248         1.67539
C         31.81942        33.95315         1.98077
C         32.90253        35.95406         0.71482
C         31.68844        35.26464         1.31783
C         32.86166        37.39677         0.27103
C         31.50115        38.04664         0.10455
C         32.68567        40.18940        -0.77431
C         31.39845        39.45907        -0.36541
C         32.70327        41.71808        -0.87451
C         31.59824        42.56492        -0.06224
C         32.75050        44.41980        -0.86620
C         31.58357        43.94040        -0.71445
C         35.27066        27.38071         0.82854
C         35.03594        28.71158         0.26325
C         33.84189        29.53243         0.60798
C         35.47975        31.52368         1.10750
C         34.02629        30.99952         0.99574
C         35.49067        33.06025         1.11843
C         34.24906        33.86045         1.38755
C         35.37949        35.90335         0.30856
C         34.23971        35.38792         1.16895
C         35.34124        37.38553         0.18311
C         34.01874        38.06611        -0.03185
C         35.28746        40.21628        -0.89544
C         33.99624        39.43287        -0.66909
C         35.31945        41.69486        -1.26852
C         34.00462        42.45159        -1.21875
C         35.28785        44.64924        -0.77935
C         34.04288        43.92241        -0.95945
C         35.44546        46.08187        -1.05094
C         37.70392        27.39897         0.65052
C         36.38807        26.84034         0.77034
C         37.66502        28.73593         0.25532
C         36.37596        29.42101        -0.00732
C         37.89196        31.44525        -0.04579
C         36.40344        30.95269        -0.01782
C         37.91304        32.97624         0.05033
C         36.74755        33.73873         0.62887
C         37.93438        35.93713        -0.05040
C         36.69367        35.24503         0.46663
C         37.81433        37.34096        -0.57183
C         36.61208        38.12949        -0.11219
C         37.82293        40.32664        -0.82437
C         36.57648        39.60249        -0.45023
C         37.82021        41.77846        -1.19058
C         36.61880        42.45757        -1.18423
C         37.84049        44.70948        -1.53017
C         36.62853        43.93309        -0.96360
C         37.87890        46.25285        -1.15138
C         36.48919        46.72065        -1.18000
C         40.22359        24.86078         1.88967
C         39.15740        25.53140         1.61944
C         40.19345        27.49386         0.85416
C         38.91753        26.72903         1.00421
C         40.12175        28.58460        -0.23614
C         38.91194        29.54714        -0.03566
C         40.37532        31.58069         0.00634
C         39.11018        30.85832         0.72577
C         40.29859        32.95651        -0.59954
C         39.05307        33.75292        -0.49688
C         40.24702        35.83064        -1.07945
C         39.08987        35.13308        -0.52464
C         40.36738        37.34799        -1.37509
C         39.02871        38.04648        -1.09835
C         40.33582        40.29453        -0.87795
C         39.06142        39.54776        -1.12131
C         40.21079        41.74183        -0.55974
C         39.09667        42.45703        -0.97846
C         40.03869        44.58820        -0.15069
C         39.21993        43.96821        -1.26202
C         39.93252        45.98597         0.34790
C         38.91978        46.91046        -0.30901
C         39.68867        48.48241         1.38471
C         38.85647        48.11296         0.54800
C         42.81567        24.81160         1.64222
C         41.48976        25.33121         1.64823
C         42.84340        27.40046         0.79250
C         41.51070        26.79675         1.20753
C         42.82042        28.62270        -0.06713
C         41.49989        29.26928        -0.38607
C         42.77750        31.45092        -1.02937
C         41.49916        30.75639        -0.60688
C         42.79874        32.97392        -1.29130
C         41.41874        33.59338        -1.39060
C         43.17544        36.09355        -1.47924
C         41.25028        35.04341        -1.55598
C         42.96586        37.47307        -1.01375
C         41.57478        38.00194        -0.61589
C         42.70813        40.21192        -0.20923
C         41.59330        39.54717        -0.60466
C         42.71892        41.64657         0.29700
C         41.37634        42.38762         0.10431
C         42.59694        44.69639         0.18365
C         41.33201        43.88015         0.18568
C         42.47824        46.15062         0.67327
C         41.07554        46.52060         1.19395
C         42.23360        48.44716         2.20889
C         40.90664        47.87127         1.92042
C         43.88284        25.23662         1.15518
C         45.32287        27.24188         0.18891
C         44.17730        26.64900         0.88323
C         45.28633        28.65667        -0.12304
C         44.09621        29.37680        -0.20189
C         45.34545        31.50874        -0.67026
C         44.11482        30.67848        -1.02539
C         45.25826        32.98779        -0.47442
C         44.01938        33.76726        -0.85456
C         45.26387        35.95818        -0.21793
C         44.13294        35.26289        -0.96906
C         45.39548        37.40996        -0.73177
C         44.07158        38.13314        -0.60121
C         45.23925        40.30927        -0.41215
C         44.01865        39.48592         0.05611
C         45.22400        41.79870        -0.21875
C         43.85987        42.46671        -0.35174
C         45.02440        44.48403         0.96240
C         43.90521        43.95704         0.11589
C         44.80607        45.80089         1.63674
C         43.65690        46.54088         1.57134
C         43.27380        47.75570         2.22562
C         47.67667        27.20102        -0.52647
C         46.61329        26.72972        -0.02401
C         47.92167        28.64907        -0.34357
C         46.57910        29.39052        -0.26885
C         47.81982        31.54181        -0.21890
C         46.53234        30.84955        -0.54324
C         47.79992        33.00766         0.01744
C         46.57350        33.74526        -0.42900
C         47.86235        35.98395        -0.26221
C         46.59699        35.24539        -0.44890
C         47.85488        37.44522        -0.40422
C         46.56073        38.14959        -0.01848
C         47.79578        40.43772        -0.09164
C         46.56356        39.62854        -0.42183
C         47.63236        41.67082         0.70883
C         46.38713        42.45328         0.49491
C         47.13473        43.99219         2.36804
C         46.13367        43.71424         1.23004
C         47.03618        45.47522         2.66537
C         45.97151        46.05946         2.42698
C         50.51616        28.92358        -0.73352
C         49.13028        29.39811        -0.81400
C         50.37703        31.71034        -0.50183
C         49.11382        30.92011        -0.67689
C         50.36702        32.97840        -0.00082
C         49.09948        33.75135         0.15170
C         50.44931        35.91992        -0.26261
C         49.11841        35.25612        -0.05087
C         50.45857        37.49932        -0.28917
C         49.14861        38.23900        -0.39293
C         50.21463        40.27058         0.81432
C         49.12213        39.70720        -0.02186
C         50.04613        41.55733         1.41389
C         48.73931        42.22761         1.38129
C         49.70436        43.92814         2.63863
C         48.52135        43.48525         2.07175
C         51.57180        29.55715        -0.71346
C         52.81256        31.81477        -0.38439
C         51.77897        31.00455        -1.05173
C         52.77228        32.94540         0.09419
C         51.60749        33.72718         0.62544
C         52.66551        36.08927         0.37288
C         51.63696        35.19086         0.25338
C         52.70124        37.36688         0.46219
C         51.60262        38.20985         0.33112
C         52.41344        40.26115         1.58939
C         51.43837        39.52513         0.88244
C         52.34378        41.39805         2.11747
C         51.16969        42.18761         2.11625
C         50.87779        43.44944         2.67548
O         31.08244        38.37241        -1.24158
O         42.22925        35.59887        -2.37011
O         39.24762        44.88829         1.02980
O         42.16161        33.14186        -2.58019
O         49.09691        34.62628         1.31196
O         32.97647        42.13614        -2.21783
O         40.86728        32.69157         0.78454
O         33.22858        39.49986        -1.91437
O         37.83458        33.29021         1.50408
O         42.22934        28.51609        -1.40980
O         36.18608        37.98742         1.26609
O         40.85969        27.76186         2.11071
O         47.71561        32.07725         1.14114
O         37.67625        35.88841         1.38059
O         38.45248        30.52052        -1.18448
O         44.11071        39.26860         1.46430
O         43.42616        44.74236        -1.02069
O         36.13222        44.26425         0.36191
O         48.46449        37.96770        -1.63838
O         39.80209        40.06459        -2.25183
O         45.87300        39.91896        -1.67361
O         48.78888        40.55934        -1.15976
O         44.29835        33.36538         0.56429
O         32.06094        35.10262        -0.10170
O         40.74214        46.61627         2.60313
O         47.44235        29.15088         0.91579
O         41.80915        30.93706        -2.01036
O         35.54059        28.86449        -1.07942
O         35.20528        33.54242         2.47458
O         41.07995        43.07687         1.36721
O         38.00200        37.49604        -2.01144
O         35.38331        40.66379        -2.28568
O         46.75800        34.43672        -1.69987
O         37.35456        40.28696         0.58137
O         33.57911        30.58538        -0.33803
O         48.95185        30.23949        -1.98064
O         46.19153        42.54284        -0.98858
O         50.69281        36.68246        -1.46463
O         38.95449        46.99621        -1.75070
O         43.71387        27.54437         1.94513
O         42.98968        41.59589         1.70374
H         43.36574        40.69099         1.92843
O         44.33617        30.24389        -2.38703
H         43.46421        29.93602        -2.73243
O         43.56248        42.43451        -1.75314
H         44.31492        42.83803        -2.23810
O         39.85794        27.84110        -1.43231
H         39.84715        28.46045        -2.19258
O         45.72826        37.27534        -2.12086
H         45.85396        38.17816        -2.49698
O         37.61785        44.67455        -2.94508
H         38.27046        45.27339        -3.36980
O         44.99718        35.95285         1.18761
H         44.69323        35.04873         1.43931
O         51.51390        33.61338         2.02892
H         51.51216        32.66783         2.28280
O         34.43159        35.99762         2.46906
H         35.27928        35.65974         2.83820
O         42.55489        47.00239        -0.49147
H         43.20297        46.60146        -1.11802
O         35.88495        31.45294        -1.25665
H         35.50144        30.68973        -1.75275
O         32.07010        42.67994         1.25661
H         31.41852        43.16851         1.80132
O         40.62602        37.53475        -2.76644
H         39.78861        37.39864        -3.25898
O         41.40137        37.62607         0.76799
H         42.15714        37.99437         1.28516
O         51.79829        31.16751        -2.42899
H         51.04058        30.68161        -2.82219
O         46.66445        43.25179         3.49879
H         47.22274        43.46560         4.27538
O         40.01141        44.08278        -2.45473
H         39.64480        43.48019        -3.13651
O         46.47563        38.09435         1.40605
H         45.55057        38.40194         1.67017
O         39.19881        30.85552         2.10987
H         39.18816        31.78636         2.42451
O         36.00446        31.05149         2.35529
H         35.86460        31.75908         3.02694
