         429
 CSIRO Nanostructure Databank - Neutral Graphene Oxide Data Set
C          1.28836         3.57059         1.76766
C          0.06552         4.20587         1.62737
C          1.17677         6.37498         1.47686
C          0.00771         5.59968         1.47719
C          1.10497         7.85513         1.43696
C         -0.08902         8.56959         0.96712
C          1.16375        10.67655         0.66960
C         -0.05951         9.90030         0.69534
C          1.14901        12.10475         0.43456
C         -0.06511        12.82526         0.26614
C          1.09938        14.95695        -0.03421
C         -0.07160        14.19271        -0.01783
C          1.10436        16.36570        -0.32435
C         -0.09965        17.09340        -0.44200
C          1.09655        19.17384        -0.86717
C         -0.10108        18.46079        -0.68291
C          1.09397        20.61780        -1.05746
C         -0.09565        21.37576        -0.95678
C          1.13000        23.45128        -1.34095
C         -0.07656        22.74800        -1.12109
C          1.14873        24.90326        -1.38361
C         -0.04673        25.64184        -1.31928
C          1.14466        27.75200        -1.10859
C         -0.04702        27.03439        -1.20529
C          1.14496        29.20753        -0.98951
C         -0.03646        29.98031        -1.16129
C          1.16502        32.05253        -0.67753
C         -0.02598        31.35154        -1.00292
C          1.18375        33.48446        -0.46313
C         -0.00836        34.26566        -0.49374
C          1.21439        36.28954         0.10390
C          0.00578        35.61784        -0.21743
C          1.22881        37.67641         0.44921
C          3.74534         3.66108         1.81943
C          2.49504         4.31933         1.73988
C          3.68041         6.48494         1.44211
C          2.44373         5.74347         1.59929
C          3.66006         7.84344         1.14507
C          2.43389         8.62395         1.27835
C          3.62960        10.69841         0.57309
C          2.39071        10.01509         0.79790
C          3.60929        12.12148         0.39206
C          2.37669        12.81245         0.36947
C          3.62231        14.96800        -0.09695
C          2.37582        14.32060         0.44837
C          3.59795        16.35027        -0.46030
C          2.34465        17.06003        -0.51630
C          3.55359        19.10401        -1.18327
C          2.33395        18.44978        -0.83069
C          3.50681        20.50921        -1.61470
C          2.29860        21.30170        -1.34059
C          3.61252        23.42235        -1.52467
C          2.34354        22.71684        -1.44217
C          3.62290        24.86319        -1.45148
C          2.39626        25.59423        -1.40856
C          3.60456        27.71737        -1.08566
C          2.40003        27.03458        -1.21402
C          3.57574        29.06369        -0.40514
C          2.34237        29.88010        -0.70110
C          3.60488        31.97528        -0.26552
C          2.36722        31.29392        -0.54187
C          3.61933        33.36841        -0.13273
C          2.41690        34.13771        -0.18712
C          3.63451        36.23094         0.44343
C          2.43902        35.55516         0.09681
C          3.63782        37.60117         0.83043
C          2.39174        38.31110         0.81061
C          6.19908         3.69713         1.77943
C          4.95791         4.37168         1.73855
C          6.17802         6.49726         1.48099
C          4.95265         5.79217         1.52899
C          6.16465         7.88513         1.05209
C          4.87557         8.48389         0.53285
C          6.07222        10.70148         0.43826
C          4.85866         9.99682         0.58504
C          6.06698        12.12022         0.23377
C          4.84233        12.82989         0.20915
C          6.07188        14.90966        -0.32329
C          4.82726        14.24152        -0.08127
C          6.06333        16.31890        -0.68696
C          4.80529        17.02756        -0.77964
C          6.01014        19.10392        -1.49813
C          4.77853        18.40901        -1.17444
C          6.07312        20.48677        -1.65204
C          4.82910        21.26108        -1.80468
C          6.09122        23.39384        -1.47383
C          4.82884        22.72270        -1.60670
C          6.08792        24.84340        -1.34127
C          4.87278        25.54632        -1.39801
C          6.15850        27.75017        -1.18268
C          4.86474        27.05301        -1.60841
C          6.11857        29.14468        -0.65046
C          4.84004        29.86545        -0.50201
C          6.09768        31.90129         0.09408
C          4.85193        31.21893        -0.25725
C          6.08246        33.24278         0.39230
C          4.91555        34.05616         0.03440
C          6.08212        36.12733         1.04197
C          4.92404        35.53692         0.35872
C          6.07947        37.51990         1.30894
C          4.85404        38.23895         1.17212
C          8.60215         3.55775         1.65861
C          7.42739         4.37521         1.82225
C          8.61274         6.62721         1.84156
C          7.42420         5.83443         1.79213
C          8.58246         8.04994         1.44544
C          7.32657         8.61336         0.91129
C          8.53516        10.69284         0.27633
C          7.32834        10.00536         0.50324
C          8.54748        12.09215         0.03965
C          7.30679        12.81452         0.04708
C          8.55919        15.00574        -0.15874
C          7.28230        14.20884        -0.20051
C          8.53609        16.15575        -1.17099
C          7.24502        16.94042        -1.06314
C          8.58259        19.04505        -1.72697
C          7.23720        18.29833        -1.59466
C          8.54319        20.51185        -1.69071
C          7.32957        21.21267        -1.66832
C          8.57274        23.34716        -1.26295
C          7.29387        22.65343        -1.52787
C          8.60127        24.82137        -1.03629
C          7.32917        25.56445        -1.15157
C          8.62324        27.59607        -0.62107
C          7.38096        26.93728        -0.96651
C          8.59720        28.93275         0.01232
C          7.29294        29.69617         0.09095
C          8.55197        31.79607         0.43525
C          7.33349        31.15148         0.25549
C          8.58288        33.32331         0.48296
C          7.24351        33.79687         1.17561
C          8.53795        36.04426         1.71738
C          7.21121        35.29930         1.43901
C          8.53636        37.51938         1.65412
C          7.30786        38.19177         1.61153
C         11.14096         3.54201         1.57151
C          9.87764         3.96208         2.03019
C         11.14191         6.64983         1.76878
C          9.87749         6.12655         2.19681
C         11.22931         8.16074         1.56542
C          9.86310         8.79478         1.25314
C         11.07324        10.68222         0.06664
C          9.80515         9.87864         0.18161
C         11.02186        12.01639        -0.27841
C          9.79278        12.78110        -0.19954
C         11.03629        14.94300        -0.23871
C          9.83601        14.19123        -0.26931
C         10.92328        16.36558        -0.40304
C          9.76205        17.00892        -0.93702
C         11.04389        19.12184        -1.16691
C          9.80558        18.36295        -1.24407
C         11.08694        20.46376        -1.49244
C          9.84765        21.20265        -1.76597
C         11.10977        23.39971        -1.21847
C          9.86536        22.69937        -1.63230
C         11.12516        24.75362        -1.03210
C          9.88536        25.57421        -1.36399
C         11.07111        27.65256        -0.44041
C          9.85653        26.96344        -0.75368
C         11.08419        29.02840        -0.14401
C          9.84221        29.72103         0.06399
C         11.03212        31.94391         0.13294
C          9.79059        31.09608         0.29713
C         11.06500        33.14375         1.07165
C          9.77201        33.85981         1.30056
C         11.00649        36.00501         1.60292
C          9.80784        35.31723         1.55993
C         11.00533        37.45323         1.78439
C          9.78485        38.17051         1.75682
C         13.52555         3.73617         1.29767
C         12.28991         4.37569         1.59966
C         13.54679         6.46321         1.17998
C         12.26785         5.83726         1.65806
C         13.56741         7.85500         0.63822
C         12.32587         8.62766         0.63984
C         13.55235        10.53546        -0.27826
C         12.32473         9.93210         0.13821
C         13.50316        11.86033        -0.98536
C         12.26157        12.71673        -0.69697
C         13.72578        14.74626        -0.30181
C         12.34067        14.21084        -0.46877
C         13.91568        16.10831         0.09445
C         12.01846        17.22383        -0.11369
C         13.55423        19.12928        -0.73416
C         12.23858        18.47405        -0.66772
C         13.61990        20.43325        -1.15169
C         12.39623        21.20020        -1.63761
C         13.61185        23.37935        -1.23126
C         12.35084        22.57958        -0.93024
C         13.58974        24.81892        -0.87593
C         12.38115        25.45673        -0.76625
C         13.62634        27.65408        -0.28162
C         12.33540        26.88951        -0.36604
C         13.58308        29.12575        -0.21988
C         12.33353        29.77520        -0.04081
C         13.52920        31.88487         0.32102
C         12.31979        31.16505         0.18835
C         13.52320        33.27232         0.78029
C         12.32549        33.90401         1.15533
C         13.47413        36.02360         1.63665
C         12.28465        35.31040         1.48905
C         13.47422        37.44163         1.89563
C         12.23033        38.12439         1.94134
C         15.92067         3.68876         0.88421
C         14.77408         4.38088         1.25676
C         16.16738         6.61118         1.39346
C         14.83416         5.82554         1.75917
C         16.05684         7.88090         0.55076
C         14.84760         8.54662         0.38767
C         16.02145        10.51766        -0.54750
C         14.79492         9.87573        -0.15261
C         16.00221        11.89034        -0.95072
C         14.81215        12.61495        -0.91442
C         16.13923        14.72049        -0.86532
C         14.84980        14.03778        -0.75309
C         16.25493        16.17503        -0.45743
C         14.94335        16.88230        -0.36671
C         16.11910        19.04267        -0.31845
C         14.86495        18.31381        -0.83930
C         16.11086        20.48464        -0.69057
C         14.96426        21.10490        -1.43371
C         16.13487        23.42095        -0.88061
C         14.92844        22.65260        -1.30421
C         16.13813        24.79794        -0.82736
C         14.88078        25.58101        -1.13588
C         16.08139        27.66709        -0.49314
C         14.90733        26.98381        -0.58816
C         16.07889        29.17414        -0.66760
C         14.77791        29.86019        -0.27586
C         15.98661        32.06114        -0.07943
C         14.75479        31.24437         0.00128
C         15.95909        33.41837         0.47549
C         14.76872        33.97016         0.92656
C         16.00039        36.11244         1.48657
C         14.77196        35.26748         1.70523
C         15.95768        37.55182         1.77545
C         14.68583        38.15159         2.02725
C         18.33017         3.56499         0.27676
C         17.18664         4.33893         0.73794
C         18.55452         6.40906         0.68181
C         17.27388         5.71879         0.86932
C         18.53715         7.82317         0.27012
C         17.28446         8.51958         0.15650
C         18.51627        10.53519        -0.62140
C         17.26434         9.83934        -0.38474
C         18.54215        11.90056        -1.00790
C         17.25794        12.55364        -1.46139
C         18.51851        14.75054        -1.57835
C         17.26313        14.04223        -1.21992
C         18.54856        16.28581        -1.56297
C         17.35550        16.99697        -1.07110
C         18.62857        19.09490        -0.97549
C         17.38744        18.34438        -0.83069
C         18.64767        20.49142        -0.72191
C         17.36723        21.19769        -0.48132
C         18.64771        23.41241        -0.60759
C         17.36453        22.69590        -0.50606
C         18.62040        24.83281        -0.53096
C         17.36576        25.53338        -0.57980
C         18.55439        27.63557        -0.13761
C         17.35395        26.94723        -0.45225
C         18.51119        29.05438         0.27730
C         17.24970        29.83691         0.03730
C         18.56010        31.97858         0.40508
C         17.34986        31.32067        -0.08755
C         18.59447        33.43785         0.46128
C         17.20422        34.18987         0.52017
C         18.45361        36.25625         1.48885
C         17.17970        35.52199         1.14530
C         18.36445        37.71224         1.04000
C         17.09806        38.31926         1.60465
C         19.53476         4.12753         0.01844
C         20.87746         6.26225        -0.39177
C         19.78023         5.55554         0.27522
C         20.89494         7.62098        -0.44704
C         19.73548         8.42886        -0.13588
C         20.96133        10.56137        -0.54616
C         19.74694         9.84408        -0.43209
C         20.96636        11.91252        -0.83096
C         19.76053        12.61007        -1.09928
C         20.96017        14.76912        -1.58178
C         19.79163        14.03666        -1.44058
C         20.98949        16.19134        -1.61503
C         19.84857        16.96692        -1.47688
C         21.04671        19.15387        -1.26044
C         19.84812        18.40419        -1.24160
C         21.04937        20.52190        -1.04476
C         19.85333        21.23006        -0.77700
C         21.06463        23.43441        -0.56702
C         19.85634        22.69221        -0.63158
C         21.05676        24.81108        -0.43371
C         19.84721        25.54757        -0.39723
C         20.98729        27.72087         0.11821
C         19.81075        26.97309        -0.15046
C         20.96023        29.08778         0.40982
C         19.76115        29.80214         0.49618
C         20.85523        31.93953         1.22786
C         19.70952        31.23134         0.75119
C         20.87263        33.32471         1.36665
C         19.77277        34.12230         1.00805
C         20.89397        36.33734         1.19664
C         19.75810        35.56282         1.13307
C         20.81628        37.76411         1.41106
C         19.64005        38.43904         1.38959
O          8.66847        23.91743         0.10792
O          8.69904        33.82055        -0.80070
O          1.76537         8.46857         2.58325
O          7.76021        28.93024         1.24064
O          4.04610        20.78441        -2.95224
O          7.94639        18.41469        -2.89204
O         10.31975        32.99654         2.33789
O         13.01071        27.06369         0.94124
O         14.71430         5.74899         3.13467
O          9.92027         4.99571         2.99891
O         13.51145         6.59428        -0.25956
O         14.28700        23.19620        -2.52094
O          5.21493        35.04350        -1.01781
O         12.12860        13.62912        -1.83565
O          9.92660        22.12142        -2.97246
O         17.49707        29.33788         1.36967
O          9.12414         9.02845         2.47729
O          6.44894        28.89687        -2.07997
O         18.35988        15.53295        -2.81141
O         19.57560         6.00635         1.64685
O          7.67621        35.57164         2.80974
O         18.00267        34.13368        -0.68636
O         12.90257        16.71778         0.82638
O         17.29374        21.98577         0.81771
O         16.76588        31.87069        -1.30945
O          4.77087        27.19882        -3.06320
H          5.23869        28.03924        -3.28625
O         16.11089        18.92218         1.14594
H         16.60018        19.69185         1.51252
O         16.69910         7.09981         2.64555
H         16.11725         6.65718         3.33830
O         13.37348        11.48475        -2.40195
H         13.05587        12.29345        -2.86851
O          9.86698        25.73966        -2.81021
H         10.63314        26.29114        -3.07331
O          4.80765         8.13796        -0.90466
H          5.61043         8.50913        -1.32998
O         14.86078        25.80382        -2.58849
H         14.77923        24.90895        -3.00515
O         15.03333        18.15161        -2.27785
H         15.15294        19.05493        -2.68126
O          2.41332        14.61896         1.91131
H          1.63035        14.18098         2.30970
O          7.19384        33.12065         2.44533
H          7.64392        33.69949         3.10575
O          8.59258        15.62856        -2.51586
H          8.49719        16.39716        -3.12565
O         12.57323        21.41068        -3.06698
H         11.70915        21.74851        -3.41725
O         18.47804        36.31533         2.94942
H         18.33829        35.41197         3.30194
O         18.22938        37.73507        -0.40952
H         18.22495        38.66935        -0.70333
O          8.57827        15.65840         1.14907
H          8.51289        14.96331         1.83696
O          3.48802        28.71687         1.04233
H          3.44826        29.55991         1.54362
O         15.24330        20.83298        -2.85903
H         14.46556        21.20429        -3.35052
O         14.90079        34.83467         3.11968
H         14.04727        34.42455         3.37914
O         11.64132         8.69756         2.85694
H         10.81625         8.82403         3.38396
O          9.72272         9.10634        -1.06771
H          9.89004         9.71914        -1.81528
O         12.35976        22.28872         0.49087
H         12.17544        23.11612         0.98414
O         17.23756        12.36824        -2.91900
H         16.47806        12.87624        -3.27530
O         16.25734        29.35285        -2.09751
H         16.30840        30.32509        -2.26901
O         16.68765        16.09388         0.96369
H         16.57198        17.00268         1.34168
O         10.97262        32.49151        -1.21694
H         10.11682        33.02496        -1.28674
H          1.33901         2.47884         1.88590
H         -0.86584         3.62341         1.64396
H         -0.97398         6.08532         1.39243
H         -1.02656         8.01224         0.82892
H         -0.99684        10.38737         0.39333
H         -1.02668        12.29697         0.28791
H         -1.03670        14.65987        -0.25911
H         -1.06418        16.58721        -0.30452
H         -1.06782        18.97828        -0.73366
H         -1.05458        20.88461        -0.74767
H         -1.02648        23.29087        -1.03716
H         -1.01741        25.13084        -1.34894
H         -1.01423        27.55242        -1.15840
H         -0.98272        29.48786        -1.42271
H         -0.96693        31.90116        -1.13900
H         -0.96966        33.78573        -0.72091
H         -0.93446        36.18806        -0.22776
H          0.27922        38.23122         0.43608
H          3.76996         2.56749         1.93620
H          2.38126        39.37513         1.08738
H          6.20065         2.59774         1.80668
H          4.84680        39.31720         1.38935
H          8.47382         2.59425         1.14320
H          7.29451        39.28875         1.69196
H         11.24325         2.54168         1.12419
H          9.81309        39.26841         1.82292
H         13.50079         2.64870         1.11523
H         12.22810        39.21533         2.08515
H         15.84257         2.62323         0.61228
H         14.64291        39.23742         2.20124
H         18.17184         2.49358         0.08346
H         17.03121        39.41495         1.70556
H         20.34384         3.53092        -0.42897
H         21.69935         5.67531        -0.82810
H         21.76047         8.11734        -0.90792
H         21.91669        10.05215        -0.36087
H         21.92768        12.44165        -0.87034
H         21.93244        14.25695        -1.56757
H         21.97912        16.66954        -1.63569
H         22.00085        18.65073        -1.46793
H         22.00598        21.05783        -1.10062
H         22.03254        22.91628        -0.58245
H         22.01917        25.33360        -0.34998
H         21.96465        27.22182         0.09005
H         21.91742        29.60417         0.56666
H         21.75263        31.37431         1.51156
H         21.77588        33.80700         1.76692
H         21.88675        35.88469         1.05768
H         21.75832        38.30885         1.57430
H         19.61931        39.53306         1.51233
