         651
 CSIRO Nanostructure Databank - Neutral Graphene Oxide Data Set
C          5.85729        31.88391        -1.90150
C          5.86792        33.22071        -2.19758
C          8.39262        27.75232        -0.55732
C          7.97019        29.05567        -0.52037
C          6.88755        29.79725        -1.14535
C          8.34087        31.76146        -1.92228
C          7.03781        31.11111        -1.56971
C          8.33964        33.21422        -2.40901
C          7.08547        33.98674        -2.31924
C          8.37336        36.09277        -2.41418
C          7.12594        35.36360        -2.36695
C          8.41378        37.47429        -2.52740
C         10.83839        23.83117         1.16453
C         10.91752        25.26613         0.71038
C          9.73968        25.90591         0.31732
C         10.90503        28.02471         0.04068
C          9.67769        27.27513        -0.02403
C         11.00065        29.37863        -0.50083
C          9.82291        30.18968        -0.66443
C         10.86755        31.71048        -2.27555
C          9.66989        31.20438        -1.56614
C         10.87779        33.18204        -2.59635
C          9.61754        33.95947        -2.39790
C         10.87372        36.08817        -2.14610
C          9.61404        35.33044        -2.35617
C         10.90203        37.54756        -2.35860
C          9.63787        38.25011        -2.51751
C         10.81766        40.43124        -2.43408
C          9.61541        39.62764        -2.68496
C         10.88642        41.89607        -2.68236
C         13.42268        19.65275         2.16249
C         13.33140        21.10292         2.21688
C         12.15543        21.83216         1.73246
C         13.39881        23.94809         1.46437
C         12.17028        23.18169         1.48560
C         13.40059        25.30900         1.02391
C         12.14376        25.97026         0.69087
C         13.40087        28.07431         0.33011
C         12.11799        27.34600         0.34819
C         13.44473        29.43174        -0.38678
C         12.19227        29.91620        -0.96253
C         13.44631        31.84054        -1.95842
C         12.19195        31.05178        -1.90434
C         13.44912        33.17445        -2.19799
C         12.19579        33.90589        -2.49471
C         13.43825        36.11229        -2.32908
C         12.18382        35.35704        -2.12699
C         13.39579        37.50262        -2.47006
C         12.12134        38.20213        -2.45137
C         13.43011        40.40089        -2.60603
C         12.13976        39.66966        -2.35715
C         13.37853        41.90405        -2.65773
C         12.05317        42.58890        -2.66853
C         13.28132        44.74161        -2.07937
C         12.07482        44.11088        -2.75213
C         13.29107        46.02910        -1.64032
C         15.87312        15.43363         2.79081
C         15.84925        16.79772         2.46909
C         14.66800        17.55607         2.44467
C         15.88854        19.72653         2.26258
C         14.64340        18.98405         2.30308
C         15.91524        21.11752         2.13909
C         14.66657        21.89526         2.21123
C         15.87430        23.90126         1.45566
C         14.64812        23.27591         1.69774
C         15.94011        25.38964         1.26354
C         14.62849        25.99809         0.83428
C         15.91068        27.99246         0.09268
C         14.67371        27.33562         0.39989
C         15.92390        29.30400        -0.50547
C         14.72522        29.90865        -0.89346
C         16.02536        31.84809        -1.84679
C         14.71709        31.09921        -1.73441
C         15.99026        33.29253        -2.07989
C         14.67879        33.99658        -1.87290
C         15.87068        36.09346        -2.59492
C         14.67157        35.41604        -2.36641
C         15.86824        37.49989        -2.78457
C         14.62748        38.20106        -2.69318
C         15.77411        40.11647        -3.56495
C         14.60289        39.58178        -3.02772
C         15.71995        42.35324        -3.52400
C         14.56950        42.76579        -2.95294
C         15.84413        44.61054        -1.74837
C         14.54755        43.97690        -2.09901
C         15.86074        46.02066        -1.15161
C         14.50935        46.74664        -1.30544
C         15.68107        48.87924        -1.07668
C         14.45407        48.10302        -1.10094
C         15.82296        50.12159        -0.48582
C         18.28234        11.16567         3.32212
C         18.29165        12.58285         3.30606
C         17.08119        13.31286         3.21342
C         18.35159        15.34873         2.80079
C         17.09503        14.69307         2.92992
C         18.43695        16.70596         2.13901
C         17.11373        17.46552         2.06731
C         18.45751        19.68719         2.11187
C         17.13664        18.96354         2.01576
C         18.44254        21.16781         2.06457
C         17.13152        21.84396         1.92254
C         18.37102        23.92804         1.48132
C         17.10983        23.20351         1.61034
C         18.40193        25.23492         0.93620
C         17.11764        25.80105         0.37354
C         18.37507        27.95431        -0.01716
C         17.16168        27.30477         0.19647
C         18.41553        29.33362        -0.39782
C         17.18910        29.96925        -0.74428
C         18.44891        32.00830        -1.35875
C         17.23635        31.27149        -1.26742
C         18.43001        33.33516        -1.89166
C         17.17073        33.97990        -2.18035
C         18.41631        36.10419        -2.75365
C         17.13552        35.32456        -2.86740
C         18.38312        37.53016        -2.94220
C         17.10445        38.21496        -2.97877
C         18.29860        40.41679        -3.44278
C         17.06310        39.57427        -3.33728
C         18.31233        41.98189        -3.37492
C         17.08839        42.96584        -3.40758
C         18.40108        44.76391        -2.25402
C         17.12400        44.00474        -2.29427
C         18.31730        46.26565        -2.07485
C         16.98741        46.85182        -1.72632
C         18.64316        49.27593        -1.38659
C         16.78646        48.19704        -1.73583
C         18.37784        50.28026        -0.46092
C         17.06394        50.81265        -0.15647
C         18.16673        52.52459         1.29446
C         17.00947        51.93732         0.66701
C         18.03508        53.58710         2.22150
C         20.52052         6.86688         2.47177
C         20.58239         8.24846         2.79551
C         19.40949         9.01359         2.96587
C         20.75099        11.05578         3.24999
C         19.47733        10.40633         3.20022
C         20.79028        12.51527         3.48511
C         19.53798        13.28627         3.32831
C         20.82731        15.41697         3.05486
C         19.56334        14.68194         3.11241
C         20.83099        16.77804         2.86157
C         19.54016        17.50595         2.81445
C         20.97095        19.66623         2.99863
C         19.58624        18.98859         2.80640
C         20.95128        21.19339         2.73431
C         19.63533        21.97188         2.51473
C         20.62923        24.27161         2.18603
C         19.55349        23.38649         2.03921
C         20.79030        25.43096         1.39805
C         19.61148        25.92951         0.79550
C         20.88351        28.04036         0.27804
C         19.67239        27.18138        -0.03481
C         20.85996        29.38156        -0.08382
C         19.64826        30.04531        -0.50711
C         20.91611        32.13707        -1.13543
C         19.67829        31.40388        -0.95393
C         20.88980        33.35149        -1.88660
C         19.64821        34.00841        -2.15014
C         20.84286        36.04764        -3.06084
C         19.60424        35.37832        -2.65768
C         20.82820        37.57353        -3.23697
C         19.56349        38.29491        -3.04354
C         20.80043        40.44285        -3.03823
C         19.58053        39.72944        -3.11784
C         20.79087        41.90554        -2.94878
C         19.60788        42.62656        -3.00010
C         20.82464        44.66397        -2.08659
C         19.65695        44.17274        -2.94150
C         20.78051        46.03960        -1.50476
C         19.63643        46.98334        -1.78951
C         20.84432        48.79993        -0.50983
C         19.74713        48.37081        -1.24193
C         20.92919        50.21746        -0.14099
C         19.58424        50.92668         0.06684
C         20.57902        52.41441         1.82709
C         19.46433        51.98839         1.07401
C         20.41926        53.50028         2.71680
C         19.14258        54.09391         2.89968
C         19.90764        55.23078         5.01793
C         18.96949        55.28673         3.83036
C         19.51414        55.47514         6.29950
C         22.76044         4.03385         1.50183
C         21.60603         4.75526         1.76393
C         22.97733         6.67636         2.42363
C         21.68712         6.10064         2.21773
C         23.06198         8.07133         2.89495
C         21.85333         8.89587         2.93150
C         23.22790        10.96593         2.91616
C         21.94672        10.29898         3.11708
C         23.34857        12.44558         3.07353
C         22.11207        13.23364         3.42850
C         23.19323        15.25230         2.31007
C         22.17345        14.76659         3.31191
C         23.05987        16.62799         1.82641
C         22.00093        17.49166         2.38665
C         23.21364        19.53386         1.69818
C         22.05299        18.87108         2.27311
C         23.28448        20.99920         1.69771
C         22.25151        21.78352         2.28754
C         23.40666        23.87471         1.55787
C         22.43702        23.17619         2.31166
C         23.32967        25.28868         1.22846
C         22.10006        26.02975         1.14978
C         23.35480        28.04117         0.48348
C         22.11180        27.37566         0.66749
C         23.39679        29.50046         0.32068
C         22.05923        30.22364         0.04508
C         23.35235        32.22880        -0.42998
C         22.11304        31.55950        -0.56368
C         23.36922        33.14640        -2.73418
C         22.02015        33.85005        -2.80765
C         23.31860        36.01921        -2.94766
C         22.12644        35.35564        -2.83374
C         23.34570        37.49534        -3.23785
C         22.09290        38.30752        -3.12002
C         23.34751        40.43938        -2.96932
C         22.06175        39.68643        -3.00991
C         23.29089        41.83809        -2.44842
C         22.13810        42.67643        -2.98875
C         23.31183        44.64500        -1.91810
C         22.15222        44.02591        -2.27402
C         23.37873        46.08353        -1.40260
C         22.03891        46.57342        -0.87324
C         23.23111        48.50220         0.31630
C         21.98360        47.91416        -0.21687
C         23.25820        49.76843         0.80601
C         22.18546        50.80586         0.51020
C         23.09008        52.42300         2.27550
C         21.86082        51.56925         1.83454
C         22.75901        53.10141         3.58891
C         21.57596        54.02931         3.50062
C         22.33688        55.02512         5.78828
C         21.31162        54.90008         4.69571
C         21.88095        55.38212         7.18042
C         20.42361        55.46674         7.43198
C         20.91163        55.46281         9.82895
C         19.98575        55.51632         8.73332
C         24.02414         4.61876         1.68277
C         25.51122         6.52759         2.40866
C         24.14131         5.93810         2.14403
C         25.56277         8.03248         2.21086
C         24.40310         8.80333         2.72770
C         25.45540        10.87468         1.71197
C         24.35629        10.25959         2.55863
C         25.59787        12.37029         1.82300
C         24.57795        13.15380         2.55768
C         25.57594        15.21872         1.40845
C         24.58622        14.68608         2.42629
C         25.51872        16.56630         1.05224
C         24.25399        17.32474         1.20306
C         25.39399        19.44347         0.41786
C         24.28626        18.79694         1.22122
C         25.60226        20.89450         0.76503
C         24.46561        21.65326         1.25144
C         25.73589        23.75200         0.83202
C         24.53216        23.08777         1.18368
C         25.76064        25.14901         0.68050
C         24.53772        25.90623         0.77010
C         25.79538        27.97376         0.15871
C         24.55643        27.30001         0.46025
C         25.81251        29.35587        -0.13465
C         24.63583        30.15400        -0.13284
C         25.79435        32.14687        -1.13252
C         24.61700        31.53151        -0.49236
C         25.80005        33.25804        -1.97739
C         24.59404        33.94661        -2.44881
C         25.85898        36.03099        -2.96553
C         24.57545        35.30014        -2.76900
C         25.90939        37.49850        -2.80678
C         24.66608        38.22377        -3.14527
C         25.89991        40.32090        -2.41498
C         24.66867        39.71357        -2.98757
C         25.82590        41.69434        -1.89933
C         24.55246        42.49232        -2.00286
C         25.90119        44.81067        -1.74737
C         24.64376        44.00010        -2.30755
C         25.69556        45.69863        -0.52980
C         24.51051        46.36544        -0.41184
C         25.49023        47.95672         1.37777
C         24.32416        47.50376         0.54818
C         25.46645        49.31522         2.08838
C         24.44201        50.29454         1.52449
C         25.40390        51.74774         3.38596
C         24.38033        51.59100         2.30197
C         24.99154        52.27621         4.73459
C         23.74592        53.17814         4.70596
C         24.64807        54.39761         6.78759
C         23.67523        54.35739         5.63302
C         24.12664        54.80931         8.10205
C         22.80822        55.13238         8.31400
C         22.25352        55.27621         9.64044
C         26.67778         8.67085         1.80356
C         27.84323        10.70661         0.88333
C         26.82188        10.17707         1.90422
C         27.83163        12.21715         0.77469
C         26.69279        12.98909         1.24848
C         27.83563        15.05761         0.48331
C         26.72036        14.43637         1.07741
C         27.85304        16.47187         0.29768
C         26.67199        17.23838         0.53486
C         27.88772        19.29992         0.01672
C         26.68546        18.65012         0.36470
C         27.97186        20.75846         0.06144
C         26.81262        21.50411         0.51372
C         28.18068        23.62788         0.30968
C         26.99882        22.94478         0.92573
C         28.22256        25.03674         0.25863
C         27.00570        25.82696         0.40461
C         28.27491        27.89525        -0.05128
C         27.02094        27.21583         0.17920
C         28.34011        29.24775        -0.34961
C         27.10081        30.05208        -0.29162
C         28.35346        31.95443        -1.43278
C         27.09042        31.47098        -0.82771
C         28.35368        33.19130        -2.06014
C         27.08485        33.72540        -2.66378
C         28.38674        36.02461        -2.66920
C         27.13901        35.25060        -2.89995
C         28.35460        37.41717        -2.65357
C         27.11104        38.17242        -2.67641
C         28.35940        40.33083        -2.20706
C         27.11525        39.63490        -2.45174
C         28.40807        41.68453        -1.86018
C         27.13280        42.42069        -1.65818
C         28.41673        44.45825        -0.99316
C         27.17625        43.92211        -1.66481
C         28.28924        45.65342        -0.14062
C         26.91005        46.08705         0.25452
C         28.04543        48.01862         1.53793
C         26.80351        47.25596         1.19676
C         27.94790        49.11796         2.51047
C         26.82358        50.06129         2.21513
C         27.64887        51.28391         4.31321
C         26.61004        51.10263         3.29850
C         27.41476        52.19220         5.37171
C         26.14337        52.79349         5.58131
C         25.87484        53.57636         6.68914
C         28.92831        12.84712         0.25238
C         30.13668        14.90811        -0.36205
C         28.99432        14.27874         0.10663
C         30.22428        16.33362        -0.45789
C         29.03761        17.12229        -0.14440
C         30.28905        19.17402        -0.71927
C         29.05067        18.52068        -0.25690
C         30.34928        20.67193        -0.66699
C         29.17297        21.42160        -0.18668
C         30.53213        23.50978        -0.36144
C         29.30296        22.86080        -0.06123
C         30.65449        24.91886        -0.17782
C         29.47744        25.66736         0.07316
C         30.84311        27.82405        -0.07012
C         29.51787        27.13410         0.17051
C         30.80640        29.17400        -0.66351
C         29.58544        29.88614        -0.72205
C         30.77536        31.75424        -1.81002
C         29.56988        31.20431        -1.28660
C         30.79753        33.14501        -2.17438
C         29.58748        33.87073        -2.29429
C         30.86192        35.94703        -2.39890
C         29.62316        35.28370        -2.51919
C         30.92424        37.40117        -2.63831
C         29.63060        38.16100        -2.75925
C         30.77238        40.09644        -1.56494
C         29.67837        39.68207        -2.59099
C         30.96424        41.63694        -1.59694
C         29.63029        42.33878        -1.43977
C         30.73707        44.14132        -0.12933
C         29.59578        43.58067        -0.80904
C         30.65217        45.37123         0.53210
C         29.39560        46.08279         0.57078
C         30.46132        47.73763         2.24264
C         29.36194        47.36091         1.32448
C         30.28074        48.75425         3.17218
C         29.04520        49.49971         3.28197
C         28.86671        50.58084         4.20994
C         31.42508        16.95538        -0.77852
C         32.76101        19.02413        -0.74634
C         31.55178        18.38536        -0.74864
C         32.88015        20.46494        -0.30711
C         31.67250        21.33070        -0.72769
C         32.83148        23.48754        -1.22925
C         31.68729        22.72354        -0.79235
C         33.12278        24.75370        -0.61258
C         31.95814        25.57781        -0.25287
C         33.24545        27.67094        -0.61769
C         32.03995        26.97533        -0.25829
C         33.22234        28.95125        -1.23048
C         31.98972        29.71461        -1.23716
C         33.23384        31.57260        -2.32970
C         31.97333        30.99150        -1.82165
C         33.29061        33.08589        -2.40251
C         32.03601        33.83392        -2.21743
C         33.30385        35.91815        -1.69057
C         32.05750        35.22650        -2.18210
C         33.46587        37.32858        -2.29452
C         32.16829        38.11251        -2.22559
C         33.27739        39.96173        -1.05950
C         32.10182        39.37847        -1.75417
C         33.22177        41.30917        -0.43807
C         32.00851        42.11934        -0.61459
C         33.13302        43.92750         0.61203
C         31.95943        43.36716        -0.05123
C         33.01794        45.14443         1.26205
C         31.77936        45.86435         1.30933
C         31.66565        46.98200         2.13987
C         34.21961        21.07522        -0.64308
C         35.81784        23.00261        -0.56596
C         34.72023        22.20179        -0.04004
C         35.72667        24.40305        -0.60235
C         34.44924        25.06030        -0.26763
C         35.63445        27.40627        -1.17822
C         34.51765        27.10615        -0.38744
C         35.48426        28.50591        -2.05700
C         34.40416        29.43219        -1.85155
C         35.71925        31.54766        -2.12914
C         34.51594        30.85305        -2.14894
C         35.78423        33.00653        -2.18909
C         34.57772        33.75670        -2.18422
C         35.81488        35.78219        -1.69631
C         34.58959        35.13494        -1.89748
C         35.80413        37.17929        -1.15134
C         34.63133        38.00728        -1.61262
C         35.79792        39.96920        -0.70177
C         34.59198        39.29952        -1.18937
C         35.72040        41.25647        -0.18128
C         34.48538        41.97214        -0.03369
C         34.39316        43.23683         0.51577
C         36.86224        25.23299        -0.85718
C         38.10923        27.34664        -1.07132
C         36.88976        26.64283        -1.04607
C         38.24931        28.77828        -1.03301
C         37.09256        29.72158        -0.78214
C         38.31023        31.53238        -1.95728
C         36.99548        30.83929        -1.81546
C         38.33066        32.99122        -2.41032
C         37.02367        33.69987        -2.09444
C         38.29477        35.81472        -1.65477
C         37.03735        35.08734        -1.84288
C         38.30358        37.17815        -1.39443
C         37.10276        37.93686        -1.21742
C         37.05761        39.28121        -0.89272
C         39.44404        29.44730        -1.17338
C         40.75899        31.61390        -1.50031
C         39.45945        30.96159        -1.09879
C         40.78240        32.92981        -1.80168
C         39.55733        33.71559        -1.89943
C         39.52772        35.06041        -1.66419
O         15.67842        41.24854        -4.37660
O          8.78441        29.93036         0.23204
O         20.20468        21.80955         3.84151
O         24.13219        37.78920        -4.43946
O         21.61229        23.95295         3.12761
O          8.31257        32.10578        -3.35680
O         28.89901        48.44362         0.39914
O         23.55307        42.04232        -1.02872
O         33.18239        32.25883        -3.62055
O         20.77860        36.66096        -4.38985
O         22.66786        30.20559         1.37924
O         13.91058        21.70070         3.43734
O         36.49035        29.78493         0.28002
O         24.75902        44.04726        -3.70465
O         30.09968        19.95809        -1.96150
O         22.55949        52.29195         4.79084
O         13.72378        41.20391        -1.40217
O         26.37978        41.85768        -0.53748
O         22.40943        56.39659         6.25318
O         11.51244        35.66338        -0.86499
O         17.70823        49.01804        -2.38691
O         23.44583        31.97580        -3.09863
O         26.54746        35.58192        -4.20534
O         24.97703        51.52944         0.97637
O         27.24576        31.21547         0.61115
O         13.39801        29.32299         1.08459
O         21.80330        55.46000         3.41036
O         24.73308        55.34435         5.61371
O         21.57302        12.84960         4.72868
O         32.94809        40.09002         0.40538
O         24.15740        40.38160        -4.18909
O         19.08101        46.91475        -3.13523
O         15.18603        43.70599        -0.79049
O         23.96745         8.31397         4.03919
O         24.46502        47.08741         1.95360
O         18.40373        41.25431        -4.64211
O         20.45305        51.19311        -1.12014
O         23.18373        16.77961         0.33682
O         30.39153        37.75595        -3.96625
O         11.60570        33.58922        -3.79915
O         21.79234        46.65367         0.55402
O         30.29869        27.69373         1.28712
O         18.04772        43.83452        -1.18309
O         26.78516        45.90114         1.72682
O         18.83277        20.35636         0.87041
O         37.86740        30.61003        -2.99373
O         11.52501        30.80618        -3.19776
O         20.39827        44.85662        -0.70790
O         19.13407        18.26171         3.99878
O         17.00027        18.15974         0.77823
O         34.61440        26.12689         0.62474
O         11.45658        40.10773        -1.14598
O         24.47535        12.75380         3.97246
O         15.50844        31.01979        -2.96987
O         28.20307        44.53054        -2.47097
O         25.86575         6.26722         3.77877
H         25.24491         6.79346         4.33550
O         23.64848        46.92207        -2.55641
H         24.54687        46.65471        -2.89467
O         27.21037        50.65831         0.95742
H         28.00223        50.19981         0.59601
O         14.59927        34.11138        -0.39809
H         15.13793        34.88175        -0.11727
O         12.13344        44.49759        -4.13939
H         11.35570        44.11864        -4.59772
O         26.14798        45.79246        -2.78169
H         25.89762        45.30506        -3.62582
O         22.36494        42.89256        -4.39178
H         21.75207        43.59862        -4.69577
O         33.54712        23.11559        -2.27762
H         33.29604        22.21817        -2.58328
O         30.27820        39.71021        -0.26744
H         31.03471        39.79042         0.36569
O         16.23934        25.95710         2.57755
H         15.50423        25.72851         3.18458
O         32.65971        20.43252         1.13282
H         33.05122        21.25348         1.51373
O         19.83750        26.71919        -1.42824
H         19.90191        27.51672        -1.99643
O         27.58633        10.14157        -0.41161
H         26.72190        10.50046        -0.71651
O         33.07445        36.04826        -0.26662
H         33.92641        36.32846         0.16288
O         24.87827        19.43640        -0.96288
H         24.51272        18.54207        -1.13885
O         10.11719        23.04407         0.20232
H         10.60066        23.08259        -0.64821
O         35.56560        36.97958         0.30768
H         35.58280        37.86726         0.72960
O         39.21388        31.37632         0.27684
H         38.54425        30.77910         0.67581
O         19.24046        56.49038         3.09461
H         20.20813        56.49547         2.90102
O         23.34308        33.58643        -0.30067
H         24.24435        33.89677        -0.07602
O         17.04766        34.99858        -4.30142
H         17.91490        34.63439        -4.58211
O         22.77520        51.70898        -0.44222
H         22.05464        51.98380        -1.06137
O         31.55279        42.01414        -2.87176
H         30.94570        41.68176        -3.58182
O         22.60584        15.22329         4.64078
H         22.18181        14.61177         5.28990
O         16.09323        45.89242         0.27069
H         15.72319        45.01980         0.54085
O         27.05749        33.09347        -3.97514
H         26.66647        33.75258        -4.59895
O         29.98843        40.23303        -3.89586
H         30.30898        39.48278        -4.45646
O         34.10257        22.69515         1.08955
H         34.63745        23.42493         1.46534
O         38.45353        32.99909        -3.85860
H         38.08456        32.14292        -4.17833
O         25.05877        49.02794         3.45839
H         24.49548        48.21450         3.41390
O         27.33212        10.49920         3.21077
H         26.67281        10.22527         3.88276
O         21.65758        50.52448         2.81034
H         21.71694        50.90826         3.71615
O         16.90822        25.23509        -0.94395
H         17.70522        25.43790        -1.48122
O         23.27615        53.51649         1.37031
H         23.59751        53.12596         0.51948
O         25.02303        10.60853         0.32930
H         24.93533         9.63494         0.23348
O         21.33014        19.53315         4.38681
H         20.73133        20.11715         4.90287
O         17.29013        43.71884        -4.64855
H         17.31419        43.04865        -5.37010
O         18.87861        16.43905         0.78444
H         18.39925        17.07540         0.19937
O         25.11993        15.23593         3.67166
H         24.44378        15.06195         4.37595
O         27.32435        22.90065         2.37196
H         26.55092        22.51112         2.83385
O         36.30454        28.60712        -3.12155
H         36.11630        29.41476        -3.64148
O         21.52982        33.48249        -4.13424
H         21.88583        32.58406        -4.32558
O         24.59124        51.07161         5.47392
H         24.72227        50.28276         4.89150
O         19.85466        44.63354        -4.28329
H         19.01086        44.48336        -4.77596
O         33.80695        37.12662        -3.68865
H         33.81445        37.99630        -4.13937
H          4.88593        31.37611        -1.79903
H          4.91092        33.75015        -2.31785
H          7.75419        26.99306        -1.03381
H          5.88125        29.34919        -1.19470
H          6.18644        35.93659        -2.33664
H          7.46465        38.02585        -2.60913
H         10.21813        23.80859         2.10338
H          8.81518        25.31065         0.28163
H          8.67161        40.13646        -2.93292
H          9.93143        42.44511        -2.74065
H         12.50975        19.07245         1.96283
H         11.21772        21.27616         1.57954
H         11.12761        44.52097        -2.29947
H         12.35929        46.61715        -1.66856
H         14.92450        14.91920         3.00525
H         13.71020        17.04094         2.61309
H         13.48259        48.61750        -1.02888
H         14.91666        50.56366        -0.03889
H         17.31709        10.63949         3.30310
H         16.12264        12.77728         3.26888
H         16.02609        52.35501         0.93200
H         17.03962        54.01504         2.41256
H         19.53489         6.39250         2.35929
H         18.42711         8.52614         2.89047
H         17.90720        55.33872         4.17891
H         18.44990        55.66905         6.50752
H         22.68991         2.99641         1.14655
H         20.61745         4.29936         1.61221
H         20.51315        55.54426        10.85001
H         18.91012        55.58936         8.94897
H         24.93262         4.03887         1.46679
H         26.27673         6.02690         1.76518
H         24.77778        54.64006         8.97390
H         22.93079        55.20073        10.50345
H         27.55736         8.08901         1.48594
H         28.86278        10.36364         1.19023
H         28.23491        52.42772         6.06788
H         26.66828        53.75103         7.43423
H         29.80103        12.25163        -0.05539
H         31.01777        14.30629        -0.63034
H         31.11281        49.01967         3.84147
H         29.67710        50.81092         4.91823
H         32.32775        16.34619        -0.93503
H         33.68565        18.42912        -0.78749
H         33.89122        45.56963         1.77948
H         32.52517        47.26991         2.76389
H         34.72046        20.72105        -1.55528
H         36.69237        22.50327        -1.00431
H         36.64642        41.75583         0.14304
H         35.29826        43.74264         0.88511
H         37.83040        24.71262        -0.92323
H         39.04168        26.75997        -1.05146
H         39.27041        37.69426        -1.28746
H         37.99098        39.85347        -0.77928
H         40.38604        28.89866        -1.32687
H         41.69295        31.03828        -1.41964
H         41.74286        33.44656        -1.95583
H         40.45402        35.58414        -1.38063
