         720
 CSIRO Nanostructure Databank - Neutral Graphene Oxide Data Set
C         23.09690        27.58716         0.98717
C         23.04841        28.85915         0.46538
C         22.96543        31.57087        -0.77322
C         23.00645        32.88000        -1.10031
C         23.01864        35.90961        -0.97660
C         23.03457        37.26402        -0.97957
C         22.98123        40.21643        -1.11594
C         22.97721        41.57542        -0.94401
C         22.93867        44.52109        -0.51108
C         22.91327        45.91591        -0.38089
C         25.52398        24.81962         1.61582
C         24.35525        25.52337         1.57192
C         25.49963        27.42434         0.51888
C         24.31599        26.84936         1.02505
C         25.45194        28.74826        -0.01826
C         24.22128        29.48671        -0.05329
C         25.40295        31.44392        -0.97579
C         24.19988        30.84317        -0.51886
C         25.54852        32.89708        -1.13481
C         24.25657        33.66434        -0.79286
C         25.49883        35.86131        -0.94261
C         24.23096        35.09512        -1.36555
C         25.48184        37.30799        -1.43305
C         24.21691        38.06192        -1.26710
C         25.44389        40.25777        -1.31054
C         24.19391        39.45848        -1.26485
C         25.42263        41.68958        -0.91831
C         24.18245        42.35452        -0.82175
C         25.38957        44.48305        -0.54878
C         24.14897        43.78125        -0.60723
C         25.36915        45.93762        -0.29096
C         24.08944        46.66446        -0.30052
C         25.27178        48.82813        -0.22136
C         24.12690        48.09005        -0.11049
C         28.00603        23.25454         1.62374
C         27.95204        24.62015         1.13946
C         26.76237        25.36733         1.12536
C         27.94088        27.27512         0.07571
C         26.75351        26.69843         0.55213
C         27.95341        28.57566        -0.70627
C         26.59893        29.28327        -0.66052
C         28.33348        31.59065        -1.38634
C         26.44290        30.52332        -1.26498
C         28.10267        33.02152        -1.19192
C         26.75362        33.59651        -1.19224
C         27.93009        35.85200        -0.71949
C         26.78412        35.11984        -1.42484
C         27.99534        37.32786        -0.79524
C         26.80006        38.04605        -1.29160
C         27.88951        40.23013        -0.54093
C         26.76703        39.53597        -1.23323
C         27.92725        41.70501        -0.67562
C         26.65463        42.39749        -0.82050
C         27.88053        44.56440        -0.81678
C         26.61379        43.81603        -0.70896
C         27.90647        46.04029        -0.72766
C         26.62849        46.73932        -0.47322
C         27.79837        48.93923        -1.07597
C         26.51781        48.20518        -0.72947
C         27.93455        50.36552        -0.73144
C         30.31566        22.98920         0.74412
C         29.10512        22.48349         1.47806
C         30.36412        24.49933         0.72704
C         29.19716        25.23716         0.72334
C         30.42352        27.32203         0.12598
C         29.19967        26.63149         0.29282
C         30.43446        28.76675        -0.04049
C         29.07687        29.47138        -0.08872
C         30.36045        31.67032        -0.06171
C         29.23399        30.87663        -0.65629
C         30.46944        33.04228        -0.66414
C         29.21953        33.74297        -0.80413
C         30.45606        35.86506         0.15872
C         29.17482        35.13151        -0.32315
C         30.44709        37.32106        -0.32163
C         29.17342        37.98665        -0.46576
C         30.43711        40.19288        -0.10030
C         29.13836        39.45548        -0.22710
C         30.40854        41.69910        -0.19811
C         29.11808        42.36867        -0.47744
C         30.38860        44.53917        -0.12815
C         29.18047        43.82120        -0.69907
C         30.36647        46.04174        -0.45714
C         29.08246        46.71863        -0.81531
C         30.37967        48.88548        -1.02046
C         29.09717        48.15004        -1.35697
C         30.39217        50.17894        -0.57482
C         29.13404        50.91713        -0.45661
C         33.01818        20.32799         1.06486
C         31.81079        20.92253         0.90873
C         32.83110        23.12959         1.60983
C         31.59156        22.32848         1.27669
C         32.77790        24.65599         1.43949
C         31.69377        25.11079         0.38561
C         32.87187        27.33883         0.35081
C         31.68521        26.63582         0.30648
C         32.94090        28.78168        -0.08048
C         31.61016        29.47898         0.01128
C         32.79956        31.72345         0.60125
C         31.69759        30.96763        -0.23330
C         32.82389        33.21614         0.14571
C         31.66415        33.69731        -0.69276
C         32.96566        35.89931        -0.47841
C         31.76712        35.08448        -0.09735
C         32.87108        37.32698        -0.94034
C         31.63332        38.06480        -0.48678
C         32.86881        40.23335        -0.73696
C         31.66991        39.48199        -0.48653
C         32.88594        41.65856        -0.76729
C         31.66749        42.42011        -0.55320
C         32.95131        44.51866        -0.57906
C         31.66730        43.79875        -0.52958
C         32.96183        46.02816        -0.60958
C         31.65179        46.77469        -0.62815
C         32.91695        48.84749        -0.94224
C         31.65307        48.13008        -1.32929
C         32.90188        50.17553        -0.47375
C         31.65751        50.84827        -0.23952
C         32.89941        52.72581         0.71317
C         31.68273        52.11146         0.34733
C         35.57595        18.93356         1.42006
C         35.46070        20.28417         1.67998
C         34.20628        21.04050         1.50543
C         35.34080        23.21625         2.03799
C         34.13391        22.41814         1.68361
C         35.35324        24.74294         1.81155
C         34.13062        25.23234         1.04737
C         35.39610        27.44685         0.78048
C         34.16429        26.64772         0.55378
C         35.33809        28.83644         0.73634
C         34.13308        29.58429         0.43929
C         35.34610        31.75572         0.49925
C         34.12287        30.97986         0.45008
C         35.39131        33.12049         0.23520
C         34.16939        33.74201        -0.38902
C         35.41723        35.99219        -0.32017
C         34.17027        35.25895        -0.39909
C         35.37170        37.43665        -0.54827
C         34.14854        38.10337        -0.75616
C         35.34132        40.22928        -1.07088
C         34.11961        39.51675        -0.87209
C         35.35091        41.65959        -1.17943
C         34.12738        42.37020        -1.00445
C         35.37553        44.51826        -1.20212
C         34.16953        43.79304        -0.96990
C         35.37361        45.98028        -1.25332
C         34.17655        46.72651        -1.09507
C         35.33681        48.98684        -1.40832
C         34.12781        48.14162        -1.12021
C         35.36605        50.21968        -0.50511
C         34.15934        50.81942        -0.13237
C         35.39875        52.87573         0.81395
C         34.12149        52.10778         0.51724
C         35.33950        53.67058         2.09372
C         38.00657        18.81168         1.81649
C         36.81286        18.21241         1.50334
C         38.00033        20.24680         2.19031
C         36.66828        20.98862         2.16334
C         37.90040        23.21057         1.84409
C         36.64863        22.49377         2.17219
C         37.90251        24.56771         1.57717
C         36.62625        25.22422         1.08385
C         37.81467        27.42471         1.27625
C         36.63953        26.74646         1.06918
C         37.83100        28.89170         1.39258
C         36.53118        29.61102         1.13720
C         37.89052        31.78839         0.80176
C         36.61081        31.02066         0.65942
C         37.80148        33.26702         0.73728
C         36.61629        33.90023         0.34251
C         37.78744        36.17561         0.37253
C         36.57226        35.34986         0.10981
C         37.85566        37.66228        -0.03146
C         36.57642        38.18460        -0.62663
C         37.82715        40.17756        -1.55228
C         36.56779        39.51515        -1.03954
C         37.83776        41.67254        -1.37692
C         36.59457        42.37889        -1.33658
C         37.84120        44.52084        -1.84253
C         36.58035        43.80051        -1.41148
C         37.84070        45.99240        -1.47348
C         36.61816        46.67965        -1.40657
C         37.94167        48.84034        -1.12407
C         36.63210        48.16400        -1.46141
C         37.94125        50.23300        -0.56611
C         36.63517        50.93875        -0.28276
C         37.79835        52.36233         1.38451
C         36.64413        52.02162         0.72272
C         37.73356        53.28753         2.54348
C         36.42252        53.89669         2.84924
C         40.68692        16.08534         1.65609
C         39.48523        16.68622         1.59407
C         40.58743        18.94691         2.07730
C         39.29396        18.09890         1.99710
C         40.46424        20.38697         1.77747
C         39.24801        21.01369         1.92142
C         40.30649        23.14571         1.01105
C         39.09125        22.41878         1.50432
C         40.31781        24.61921         1.05376
C         39.12737        25.27585         1.33416
C         40.30107        27.46497         0.98934
C         39.12366        26.74941         1.60562
C         40.27840        28.90894         1.02932
C         39.11932        29.61300         1.25099
C         40.37344        31.77008         0.94187
C         39.11044        31.11783         1.46262
C         40.37477        33.24142         0.85871
C         39.06726        34.00292         0.87909
C         40.35878        36.12475         0.16157
C         39.08792        35.46899         0.57005
C         40.35544        37.41902        -0.34316
C         39.06891        37.99559        -0.91751
C         40.31482        40.17186        -1.22064
C         39.11685        39.49440        -1.15401
C         40.33201        41.63134        -1.38311
C         39.09135        42.35781        -1.39342
C         40.34372        44.46576        -1.45875
C         39.11939        43.78465        -1.47442
C         40.35219        45.94769        -1.75465
C         39.09164        46.67011        -1.33531
C         40.40240        48.69974        -0.74053
C         39.15222        48.01489        -0.97168
C         40.38145        50.00656        -0.10159
C         39.13915        50.66199         0.18116
C         40.29832        52.36938         1.51967
C         39.08133        51.75590         1.05449
C         40.27905        53.51599         2.34584
C         39.03939        53.90085         3.04925
C         40.20661        55.85945         3.97205
C         39.05620        55.15679         3.81700
C         43.20055        16.13520         1.77596
C         41.91834        16.80341         2.19131
C         42.94436        18.95673         1.26652
C         41.85698        18.26342         1.78822
C         42.89575        20.37292         1.12102
C         41.66336        21.08406         1.30826
C         42.63362        23.09392         0.15156
C         41.58969        22.44092         1.00182
C         42.68854        24.61225         0.28633
C         41.50293        25.33193         0.68090
C         42.55846        27.47928        -0.07213
C         41.43357        26.75981         0.57769
C         42.57184        28.99800        -0.03435
C         41.63226        29.57802         1.03303
C         42.74878        31.70804         0.38731
C         41.54888        31.06461         0.79373
C         42.67561        33.09259        -0.04496
C         41.53854        33.92985         0.28320
C         42.81510        35.98791        -0.14982
C         41.57420        35.32403         0.10115
C         42.88462        37.49289        -0.11095
C         41.58383        38.13991        -0.55057
C         42.84397        40.12253        -1.34414
C         41.56878        39.44581        -1.00444
C         42.83657        41.60623        -1.57322
C         41.55366        42.34725        -1.43297
C         42.89715        44.48337        -1.23702
C         41.56981        43.75815        -1.40205
C         42.84036        45.97342        -1.52698
C         41.64576        46.65313        -1.38736
C         42.85717        48.82632        -0.93128
C         41.60781        48.05469        -1.03962
C         42.84469        50.15570        -0.22367
C         41.56722        50.64331         0.29567
C         42.76390        52.57723         1.23101
C         41.55710        51.85972         1.03793
C         42.68404        53.91381         1.82812
C         41.45219        54.28985         2.53942
C         42.68823        56.02338         3.77705
C         41.45081        55.42242         3.37944
C         44.22871        16.78013         1.21680
C         45.45461        18.99140         0.79689
C         44.15199        18.20376         0.72644
C         45.40237        20.38056         0.56850
C         44.17433        21.16936         0.99149
C         45.06007        23.05894        -0.49873
C         43.97070        22.44160         0.23570
C         44.98656        24.54658        -0.69481
C         43.82681        25.26872        -0.13332
C         45.13305        27.46032        -0.32434
C         43.83181        26.73580        -0.34395
C         45.16269        28.86186        -0.01657
C         43.95974        29.59240         0.14793
C         45.25140        31.68656         0.39677
C         43.99454        30.99259         0.29639
C         45.19608        33.13614         0.40197
C         44.06474        33.83539        -0.18321
C         45.27153        35.96917         0.02770
C         44.02225        35.29075        -0.11750
C         45.45831        37.33139        -0.58037
C         44.09053        37.99209        -0.97548
C         45.21423        40.26372        -0.57633
C         44.11537        39.51601        -0.89247
C         45.26079        41.70174        -0.89763
C         44.11334        42.32202        -1.42188
C         45.40320        44.45646        -1.79982
C         44.06196        43.73205        -1.94903
C         45.42496        45.92674        -1.55081
C         44.13814        46.70113        -1.51560
C         45.27964        48.58237        -0.12921
C         44.17594        48.12944        -1.08879
C         45.33005        50.09103         0.04783
C         44.10205        50.75369         0.26443
C         45.26975        52.70791         1.18543
C         44.03777        52.02901         0.87237
C         45.28446        53.95291         1.88148
C         44.00185        54.62892         2.22222
C         43.90293        55.57459         3.33054
C         47.88426        19.07060         0.55545
C         46.71755        18.36146         0.79940
C         47.84144        20.42837         0.12932
C         46.56379        21.06612         0.14797
C         47.62035        23.22218        -0.74207
C         46.41490        22.40030        -0.47127
C         47.54215        24.55533        -0.96823
C         46.26763        25.31867        -0.89945
C         47.58042        27.44438        -0.46696
C         46.32326        26.76596        -0.54021
C         47.63686        28.80615        -0.13293
C         46.42631        29.53963         0.09229
C         47.76650        31.61545         0.38389
C         46.46596        30.94718         0.37691
C         47.95373        32.91750         0.94663
C         46.13447        33.95636         1.02650
C         47.62020        36.01445         0.91897
C         46.32921        35.32286         0.65196
C         47.67440        37.47166         0.65414
C         46.39577        38.14365         0.28672
C         47.59876        40.39516         0.46243
C         46.35266        39.62171         0.15214
C         47.59794        41.86091         0.06272
C         46.49548        42.39783        -0.76526
C         47.97881        44.43085        -1.45438
C         46.66564        43.68984        -1.47146
C         48.01186        46.01565        -1.62370
C         46.69361        46.55609        -1.02133
C         47.87359        48.71566        -0.25153
C         46.63410        47.90398        -0.36308
C         47.80371        50.09299         0.07168
C         46.53709        50.77214         0.25849
C         47.71422        52.84225         0.95939
C         46.50315        52.11802         0.77945
C         47.70854        54.03965         1.66310
C         46.50405        54.57235         2.15341
C         50.31414        20.58626        -0.21734
C         49.01244        21.14080        -0.31277
C         50.09232        23.30097        -1.14794
C         48.85721        22.43153        -1.09902
C         50.02051        24.62950        -1.42754
C         48.69919        25.35871        -1.50644
C         50.13370        27.41085        -0.97230
C         48.82071        26.68813        -0.78015
C         50.16472        28.89055        -0.74589
C         48.92199        29.54421        -0.22098
C         50.09603        31.77526        -0.43604
C         48.89247        31.02220        -0.19428
C         50.11852        33.19791        -0.09116
C         48.98612        33.77122         0.60217
C         50.24876        35.96286         0.85373
C         48.93649        35.21320         0.94843
C         50.11685        37.47942         0.79867
C         48.86549        38.18560         0.75742
C         50.09656        40.33354         0.72076
C         48.89637        39.66112         0.65139
C         50.17232        41.79935         0.49730
C         48.91527        42.57972         0.11251
C         50.38500        44.17317        -0.99205
C         49.11095        43.75561        -0.75702
C         50.47864        46.32309        -1.32964
C         49.22397        46.75548        -1.01824
C         50.32973        48.79007        -0.07844
C         49.12206        48.09197        -0.44175
C         50.23524        50.15468         0.34495
C         49.01198        50.81765         0.27582
C         50.22160        53.02270         0.49554
C         48.92039        52.32627         0.20775
C         51.45776        21.26586        -0.57441
C         52.56152        23.32340        -1.75432
C         51.41931        22.66255        -1.01651
C         52.24708        24.57682        -2.58856
C         51.19413        25.39860        -1.86061
C         52.12770        27.60017        -2.64032
C         51.19814        26.76213        -1.78177
C         52.24664        29.11286        -2.24529
C         50.98670        29.78303        -1.67081
C         52.42960        31.88756        -1.25040
C         51.20532        31.16761        -1.06504
C         52.39779        33.35737        -1.00110
C         51.23408        33.96927        -0.35867
C         52.55154        36.12668         0.01061
C         51.19280        35.48483        -0.26142
C         52.54414        37.43147         0.56041
C         51.33846        38.15018         0.79120
C         52.68683        40.29033         0.76645
C         51.37669        39.61548         1.16017
C         52.71638        41.80060         0.83842
C         51.48566        42.43726         0.24246
C         52.67737        44.64569         0.19108
C         51.53940        43.71421        -0.25758
C         52.83373        46.05464        -0.39980
C         51.80061        46.96888        -1.06966
C         52.78989        48.91996         0.19213
C         51.62749        48.22124        -0.24979
C         52.74769        50.22572         0.66524
C         51.41634        50.87768         0.95782
C         51.36724        52.36879         0.71357
C         54.86038        23.19725        -2.56956
C         53.76829        22.54886        -2.14511
C         54.85859        24.67705        -2.77759
C         53.52662        25.38034        -2.88110
C         54.79754        27.63875        -2.72313
C         53.48840        26.90488        -2.84370
C         54.84105        29.13612        -2.47488
C         53.54798        29.87653        -2.23274
C         54.91095        31.92355        -1.53589
C         53.62153        31.25468        -1.64062
C         54.95601        33.39768        -1.27765
C         53.68943        34.15427        -0.99002
C         55.02371        36.10286         0.00318
C         53.75082        35.46752        -0.30075
C         55.05528        37.36742         0.56294
C         53.81582        38.09347         0.99394
C         55.14895        40.20399         0.22704
C         53.83451        39.58097         0.67009
C         55.17613        41.71560         0.34201
C         53.99094        42.41318         0.30541
C         55.30890        44.56420         0.04329
C         53.97921        43.85210         0.01101
C         55.23234        45.96968         0.59667
C         54.09611        46.72971        -0.07740
C         55.20822        48.78857         1.04211
C         54.10781        48.23117         0.14889
C         55.17385        50.29631         1.05688
C         53.97624        50.92589         0.97238
C         56.97200        24.73296        -1.52925
C         56.05677        25.45253        -2.34280
C         57.22831        27.60986        -2.19302
C         56.04902        26.86898        -2.45749
C         57.30386        28.95472        -1.78766
C         56.12355        29.80481        -2.07936
C         57.44191        31.79327        -1.38148
C         56.09890        31.21080        -1.61136
C         57.52705        33.23850        -0.93374
C         56.25742        34.04530        -0.88731
C         57.47651        35.88011         0.21702
C         56.27548        35.34803        -0.17009
C         57.55563        37.34772         0.39950
C         56.34296        38.02156         0.99268
C         57.61903        40.16346         0.82489
C         56.38943        39.51370         0.74430
C         57.64615        41.65040         0.87593
C         56.45325        42.40713         0.39192
C         57.79154        44.53876         0.36535
C         56.51385        43.78075         0.32722
C         57.76365        46.00823         0.54730
C         56.54791        46.72243         0.57613
C         57.76910        48.80268         0.86058
C         56.54410        48.11798         0.77216
C         58.04073        25.23398        -0.77405
C         59.39336        27.32348        -0.22290
C         58.64171        26.46257        -1.06590
C         59.41197        28.69209        -0.40977
C         58.46741        29.49297        -1.14930
C         59.82099        31.53856        -0.70008
C         58.57917        30.91350        -1.03801
C         59.92829        32.85273        -0.33084
C         58.71189        33.65803        -0.12188
C         59.97852        35.80501         0.65383
C         58.71463        35.08519         0.38697
C         60.06309        37.14784         0.71292
C         58.87711        38.02008         0.55473
C         60.09890        40.15474         1.01929
C         58.86410        39.45465         0.94005
C         60.18716        41.52340         1.01790
C         58.97688        42.35358         1.03157
C         60.23932        44.60981         1.08760
C         59.08196        43.80624         0.64886
C         60.20822        45.96193         1.01903
C         58.98616        46.69764         0.74637
C         58.97070        48.10287         0.85402
O         58.44696        26.93593        -2.37849
O         43.24977        55.00152         1.02518
O         37.52725        31.17476        -0.48793
O         55.68016        29.75457        -3.49863
O         36.98629        29.39825         2.50427
O         52.67535        29.86457        -3.42694
O         50.08852        29.18686         0.66607
O         48.25844        35.59197         2.17972
O         39.35920        22.56786         0.01415
O         52.82116        34.16330        -2.17886
O         37.25164        20.49977         3.41948
O         42.82953        50.06879        -1.71018
O         47.02744        33.34448         1.91126
O         35.90266        22.94156         3.37033
O         45.36597        25.02380        -2.02111
O         54.56144        47.69686        -1.10550
O         28.08487        35.33014         0.65360
O         54.66374        44.26372        -1.22314
O         45.55751        22.31069        -1.68558
O         26.79981        48.63400        -2.11734
O         34.34077        25.48129        -0.36272
O         57.87134        32.88168        -2.29087
O         42.88011        27.05312        -1.44231
O         58.18101        37.93251        -0.78091
O         43.36890        33.28880        -1.31399
O         49.43750        42.65703         1.46676
O         26.28747        37.58238        -2.59666
O         28.14904        39.76224         0.82078
O         42.83295        40.65120        -2.70772
O         30.52831        41.01844         1.09988
O         50.62366        45.10770        -2.01352
O         43.82776        37.68265        -2.29989
O         31.90101        22.67091         2.66422
O         47.24991        41.43307         1.42875
O         47.58160        43.69077        -2.65028
O         45.82843        38.93075         1.36844
O         52.42694        23.52992        -0.32492
O         38.35422        36.07186         1.72553
O         39.90169        18.47349         3.28473
O         39.82638        33.80746         2.13765
O         44.36727        47.81629        -2.48505
O         30.98710        46.81256         0.66176
O         58.44823        33.93702         1.29437
O         28.70446        44.19441        -2.01792
O         38.40038        52.75684         3.73587
O         37.42466        51.23326        -1.50894
O         45.61820        45.37624        -2.90597
O         33.17999        45.34011         0.65724
O         58.10166        42.14072         2.19706
O         26.19444        46.36811         0.88172
O         54.16385        27.41645        -4.02952
O         46.73161        46.64323         0.43308
O         37.48913        48.71108        -2.51942
O         49.83091        26.67399         0.26245
O         26.34101        40.11576        -2.48809
O         32.32043        34.26731         1.12608
O         55.72634        34.17825        -2.24843
O         27.40837        30.92436        -2.19692
O         54.24805        24.96279        -4.07578
O         58.68573        44.08896        -0.73095
O         24.23442        34.95241        -2.81175
H         24.05779        35.83421        -3.20433
O         24.25742        33.77209         0.67145
H         24.23700        32.85927         1.03151
O         51.26597        50.71255         2.41624
H         50.35268        50.98367         2.64996
O         51.50321        27.59219        -3.94304
H         52.11368        28.08576        -4.53916
O         40.29925        46.01096        -3.23024
H         40.33183        46.95752        -3.49017
O         30.18666        22.56808        -0.65069
H         30.76905        23.16652        -1.17923
O         30.09416        31.89927         1.35884
H         29.34988        32.53639         1.41918
O         35.53799        53.85384        -0.27054
H         35.73121        53.35771        -1.09526
O         43.73798        43.64795        -3.34563
H         44.23992        44.35594        -3.81117
O         30.36311        35.98783         1.59240
H         29.41048        36.12496         1.80832
O         32.04888        31.13469        -1.62609
H         32.71148        30.43813        -1.86217
O         42.24139        29.33275         2.32232
H         41.62668        29.64989         3.01733
O         38.02043        38.46127         1.16670
H         38.24118        37.83685         1.90172
O         56.48065        37.80616         2.43339
H         55.58809        37.95493         2.83578
O         35.12314        49.54178        -2.73796
H         36.01838        49.77555        -3.08384
O         32.02378        24.56178        -0.91924
H         32.92810        24.89465        -1.16185
O         37.83591        44.50090        -3.31410
H         38.65414        44.97988        -3.60016
O         26.97552        35.23319        -2.84316
H         26.13680        34.95020        -3.27738
O         51.69279        24.11729        -3.83269
H         51.66266        24.87608        -4.45325
O         48.06795        46.30901        -3.01560
H         47.49677        45.65541        -3.48523
O         39.05226        31.34320         2.89203
H         39.22174        32.30875         3.03698
O         50.10292        29.98754        -2.80605
H         50.66499        30.29120        -3.55508
O         53.79719        38.05321         2.47910
H         52.98895        38.54405         2.77300
O         28.29573        28.26740        -2.07221
H         28.15427        29.08824        -2.59766
O         35.31689        25.39326         3.08834
H         35.67285        24.75781         3.75434
O         31.76977        47.88140        -2.75282
H         30.86301        47.89233        -3.14634
O         30.26210        44.40777         1.30186
H         30.91150        45.03189         1.70144
O         48.39880        25.67392        -2.88477
H         48.20265        24.83787        -3.35789
O         52.70544        42.13973         2.27075
H         52.05919        41.53309         2.70887
O         38.86119        37.31985        -2.18498
H         39.55603        37.61500        -2.81106
O         48.63852        21.99670        -2.48687
H         47.71329        21.67153        -2.55549
O         50.93765        35.64578         2.09583
H         50.26568        35.69032         2.81245
O         46.17643        37.11645        -1.81251
H         45.45137        37.18394        -2.50869
O         37.73657        39.98528        -3.02307
H         38.41371        40.56127        -3.44001
O         32.42582        25.24087         2.70004
H         31.97937        24.54391         3.23446
O         54.90830        45.75428         1.99446
H         54.77605        46.63972         2.42031
O         36.59872        24.71880        -0.27746
H         37.43752        24.96976        -0.71785
O         39.27267        26.87555         3.06765
H         38.93983        27.76220         3.32761
O         42.05907        29.47199        -1.29862
H         42.39383        28.85522        -1.99098
O         34.21030        33.34375        -1.79340
H         35.13110        33.43553        -2.11665
O         32.68016        37.22711        -2.40476
H         33.48935        36.82242        -2.78492
O         28.64512        29.66038         1.28433
H         29.28654        30.27945         1.71432
O         41.88365        16.71147         3.64119
H         41.09777        17.23380         3.93880
O         50.69841        35.96354        -1.53110
H         51.29813        35.60020        -2.22455
O         32.54527        31.67218         2.00936
H         31.98694        32.44640         2.24634
O         25.54265        36.01985         0.48264
H         25.31554        35.16049         0.91301
O         52.30868        47.34903        -2.38898
H         52.35551        46.53356        -2.93266
O         48.62491        52.62332        -1.19709
H         49.32221        52.20595        -1.74545
O         29.12912        47.94949        -2.80747
H         28.18793        47.94416        -3.11235
O         43.25658        44.41330         0.18095
H         42.50879        44.76105         0.71152
O         44.77345        48.11246         1.16090
H         45.34155        47.35205         1.43591
O         43.91227        18.10109        -0.71920
H         43.10531        17.56080        -0.85222
O         54.83876        48.41802         2.42000
H         55.44576        48.88254         3.03416
O         43.15500        37.90675         1.24949
H         42.43365        37.57831         1.82586
O         44.52485        21.58382         2.39333
H         44.68330        20.76533         2.91239
O         52.41425        44.85682         1.59945
H         52.51001        43.98803         2.06911
O         55.17695        39.93410        -1.22126
H         56.05551        40.19794        -1.56993
O         51.37280        39.68360         2.64120
H         50.49769        39.36181         2.95210
O         42.14994        22.84140        -1.22087
H         41.16868        22.90801        -1.21524
O         33.25207        28.70004        -1.54353
H         32.58602        28.10273        -1.94952
H         22.18477        27.12247         1.38864
H         22.09477        29.40514         0.46045
H         22.02490        31.00624        -0.84893
H         22.09707        33.40773        -1.41941
H         22.08263        35.38790        -0.72808
H         22.10532        37.79239        -0.72137
H         22.01543        39.69565        -1.16747
H         22.00663        42.08380        -0.86786
H         21.97716        43.99313        -0.55719
H         21.94260        46.43142        -0.34188
H         25.51470        23.81027         2.04751
H         23.42620        25.08219         1.96089
H         25.23249        49.91969        -0.09973
H         23.18144        48.60057         0.12819
H         27.12639        22.82985         2.12689
H         27.02000        50.97304        -0.68271
H         29.11260        21.44771         1.84765
H         29.16878        51.98127        -0.19017
H         33.11331        19.27052         0.78533
H         30.97598        20.37111         0.45296
H         32.85726        53.73208         1.15168
H         30.75402        52.65831         0.55328
H         34.69961        18.34997         1.10873
H         34.37997        54.12343         2.38236
H         36.78204        17.13463         1.28633
H         36.33644        54.48359         3.77535
H         40.78331        15.02764         1.36661
H         38.61168        16.13448         1.21448
H         40.21451        56.77608         4.58002
H         38.13095        55.49142         4.30571
H         43.30347        15.07236         2.04482
H         42.65438        56.78727         4.56818
H         45.13466        16.21007         0.96104
H         44.82244        55.90967         3.83179
H         48.84208        18.53513         0.59642
H         46.79445        17.28542         1.00672
H         48.64281        54.59741         1.81690
H         46.52597        55.53293         2.68644
H         50.43287        19.57494         0.19823
H         50.23737        54.11587         0.36410
H         52.43737        20.79051        -0.42668
H         52.29217        52.95021         0.84290
H         55.74912        22.63497        -2.89438
H         53.76287        21.45283        -2.05256
H         56.06495        50.85945         1.37042
H         53.93569        52.00916         1.15388
H         56.67997        23.69588        -1.30047
H         57.78704        49.89516         0.97608
H         58.38059        24.65714         0.09856
H         59.94426        26.89672         0.62871
H         60.08488        29.25654         0.25324
H         60.73773        30.93248        -0.73557
H         60.90614        33.26538        -0.04787
H         60.87725        35.19679         0.83062
H         61.03513        37.60873         0.94091
H         61.03275        39.57547         0.99941
H         61.17067        42.00781         0.94500
H         61.14194        44.09362         1.44541
H         61.09844        46.54502         1.29850
H         59.91896        48.64440         0.98038
