         210
 CSIRO Nanostructure Databank - Neutral Graphene Oxide Data Set
C         30.50929        31.68099         0.20216
C         30.64194        32.67465         0.94246
C         30.71169        35.70596         1.88023
C         30.68864        36.93037         1.65290
C         30.60897        40.13369         1.57093
C         30.47047        41.38509         1.45740
C         32.68369        29.19240        -1.50649
C         31.58720        29.72160        -1.13535
C         32.73378        31.80803        -0.68103
C         31.46007        30.98037        -0.57373
C         32.93366        33.00838         0.17549
C         31.86428        33.46285         1.10201
C         33.05376        35.76539         1.17246
C         31.90845        34.90951         1.59608
C         32.99291        37.16819         1.25447
C         31.74755        37.87461         1.50014
C         32.98615        40.09951         1.65541
C         31.69557        39.26026         1.53691
C         32.87716        41.53979         1.15523
C         31.58356        42.20919         1.13481
C         32.77063        44.17476         0.60587
C         31.68570        43.58955         0.83368
C         35.43711        27.54806        -1.47433
C         35.20295        28.91154        -1.54424
C         34.00484        29.63615        -1.48280
C         35.32935        31.73240        -0.89229
C         34.02067        31.10813        -1.20640
C         35.33542        33.12562        -0.44493
C         34.13866        33.72785         0.11766
C         35.40492        35.82486         0.50067
C         34.22302        35.09094         0.64027
C         35.49695        37.22144         1.06190
C         34.19099        37.97820         1.04821
C         35.41174        40.13096         0.91802
C         34.18937        39.35270         1.12126
C         35.37042        41.54427         0.88368
C         34.08221        42.23345         0.92234
C         35.28038        44.38114         0.54895
C         34.09209        43.66458         0.66718
C         35.43837        45.78512         0.36709
C         37.73742        27.43319        -0.96686
C         36.47205        26.85895        -1.23499
C         37.79812        28.85692        -1.22304
C         36.55618        29.63410        -1.74172
C         37.77175        31.75772        -1.14135
C         36.49271        31.03786        -1.14768
C         37.79711        33.16524        -0.70489
C         36.54570        33.84099        -0.42992
C         37.79166        35.95538        -0.08749
C         36.59138        35.21563        -0.00084
C         37.84528        37.36233         0.17726
C         36.66818        38.02739         0.56124
C         37.85746        40.18547         0.51666
C         36.64136        39.44608         0.66717
C         37.82654        41.59785         0.66696
C         36.59664        42.28797         0.75721
C         37.76065        44.49956         0.59453
C         36.58750        43.74317         0.66874
C         37.81392        46.03613         0.68330
C         36.43440        46.51711         0.27403
C         39.85095        24.77388         0.58368
C         38.93176        25.41823         0.01713
C         40.09207        27.43832        -0.13878
C         38.85414        26.75934        -0.40732
C         40.19185        28.82726        -0.50642
C         39.01551        29.50688        -1.02511
C         40.28996        31.66659        -0.75107
C         39.07982        30.98456        -1.16728
C         40.28651        33.08098        -0.28244
C         39.00259        33.80955        -0.57793
C         40.31474        36.00594        -0.57936
C         39.00283        35.27781        -0.55558
C         40.32250        37.42456        -0.17904
C         39.09202        38.09280         0.06509
C         40.33468        40.21931         0.19498
C         39.09605        39.49852         0.28322
C         40.34650        41.63462         0.33130
C         39.10881        42.32138         0.71918
C         40.28243        44.53190         0.11701
C         39.08820        43.86052         0.66100
C         40.18532        45.91531        -0.31062
C         38.94060        46.60218        -0.12769
C         39.96873        48.56186        -1.13987
C         39.02502        47.89618        -0.61730
C         42.26586        24.91630         1.53624
C         41.09103        25.37132         0.89872
C         42.42593        27.49961         0.69371
C         41.20289        26.77052         0.48621
C         42.55637        28.85724         0.24060
C         41.42364        29.50225        -0.34058
C         42.76581        31.67886        -0.45456
C         41.55700        30.90202        -0.90016
C         42.79957        33.06793        -0.52574
C         41.56456        33.83522        -0.59411
C         42.79822        35.98540        -0.50042
C         41.58388        35.23411        -0.55234
C         42.79872        37.38586        -0.33058
C         41.55638        38.10636        -0.15162
C         42.79988        40.24702        -0.05205
C         41.56595        39.52589         0.00175
C         42.78029        41.67438        -0.00440
C         41.53821        42.37248         0.16402
C         42.70576        44.49641        -0.33776
C         41.49288        43.81394         0.01507
C         42.61336        45.85876        -0.92489
C         41.31887        46.59003        -0.87059
C         42.52254        48.52487        -1.59695
C         41.24657        47.98174        -1.24311
C         43.32452        25.55369         1.74545
C         44.76442        27.61212         1.52098
C         43.56206        26.89988         1.33327
C         44.92348        28.90925         0.98328
C         43.82742        29.52110         0.34513
C         45.26974        31.66273         0.01414
C         43.98223        30.88590        -0.22988
C         45.23374        33.14408        -0.08113
C         44.05355        33.79265        -0.40407
C         45.30814        36.00712        -0.32442
C         44.08487        35.25553        -0.78363
C         45.28061        37.39796        -0.30354
C         44.04082        38.12102        -0.30235
C         45.28107        40.28407        -0.11915
C         44.03911        39.54109        -0.17842
C         45.25698        41.71270        -0.07497
C         44.00095        42.40842        -0.09644
C         45.20192        44.60151        -0.21377
C         43.93926        43.82955        -0.25220
C         45.17498        46.09937        -0.60451
C         43.92499        46.63636        -1.20192
C         43.65924        48.06737        -1.37406
C         47.33757        27.59282         0.10899
C         47.15013        26.46824        -0.43084
C         47.46796        28.83240         0.67851
C         46.25500        29.59795         1.22648
C         47.60565        31.71440         0.94741
C         46.34415        31.00205         0.73201
C         47.63998        33.18241         0.65043
C         46.44511        33.89259         0.14414
C         47.75817        36.01600         0.21672
C         46.50962        35.27952        -0.02283
C         47.78103        37.41641         0.10939
C         46.58156        38.14166        -0.45635
C         47.74607        40.29978         0.02163
C         46.52583        39.60403        -0.10503
C         47.74350        41.73407        -0.01732
C         46.49938        42.43667        -0.09111
C         47.71700        44.54769        -0.33547
C         46.48870        43.86405        -0.18970
C         47.51831        45.93865        -0.59794
C         46.51808        46.59165        -0.95102
C         50.01724        28.89757         0.90934
C         48.73689        29.48642         0.85319
C         50.12136        31.56179         0.98094
C         48.86681        30.91559         0.93884
C         50.19961        33.02760         0.65785
C         48.95627        33.83172         0.38841
C         50.19674        35.98631         0.62235
C         48.97561        35.30852         0.45186
C         50.20473        37.42541         0.55973
C         48.99419        38.14471         0.28878
C         50.21433        40.31034         0.29194
C         48.99602        39.58250         0.18162
C         50.24162        41.74815         0.13218
C         48.99056        42.44365        -0.03313
C         50.24588        44.42013        -0.25190
C         48.94956        43.86688        -0.22614
C         51.15274        29.41397         1.10423
C         52.50084        31.64886         1.29026
C         51.35247        30.80913         1.13959
C         52.47235        32.90046         1.23561
C         51.43296        33.82096         0.95363
C         52.53457        36.08329         1.03994
C         51.42190        35.20476         0.87229
C         52.53647        37.32460         0.95504
C         51.42176        38.17823         0.70095
C         52.55488        40.42991         0.58085
C         51.43196        39.56907         0.54377
C         52.63582        41.66443         0.39776
C         51.49815        42.47974         0.14985
C         51.35939        43.86842        -0.07485
O         32.27001        33.80698         2.44323
O         43.32270        45.85600        -2.24236
O         39.55733        35.81825        -1.84191
O         38.49878        31.56069        -2.42800
O         45.08182        45.71326         0.77267
O         44.98004        30.98708        -1.30033
O         33.19655        31.95187        -2.05919
O         49.71457        33.26874        -0.72780
O         39.29585        43.14191         1.92374
O         47.53950        32.72946         2.04933
O         38.05331        46.39026         2.04114
H         37.36352        45.98211         2.60442
O         41.75409        30.70409        -2.35234
H         41.75419        31.58492        -2.78422
O         45.75103        27.04012         2.24761
H         45.51629        26.10328         2.42306
O         36.68900        29.76260        -3.17348
H         37.43242        30.39468        -3.34206
O         44.21113        35.25570        -2.26463
H         43.38655        34.86813        -2.62978
O         35.77054        37.02355         2.50520
H         35.68462        37.89668         2.94617
O         46.48841        29.63616         2.66694
H         46.56625        28.70555         2.97695
O         33.23716        40.21381         3.09337
H         32.48389        40.70044         3.49223
O         40.27452        32.99673         1.22746
H         40.40436        33.90523         1.57642
O         46.81798        38.14653        -1.91842
H         46.63821        37.24043        -2.25258
