         732
 CSIRO Nanostructure Databank - Neutral Graphene Oxide Data Set
C         23.26936        24.87151         2.16064
C         22.23060        25.72661         2.62505
C         22.87743        27.37991         0.89359
C         22.06441        26.97448         2.09837
C         22.90727        28.86374         0.64889
C         21.69444        29.55560         0.66701
C         22.81920        31.62666         0.09950
C         21.64943        30.92722         0.42125
C         22.79460        33.12021         0.07537
C         21.57500        33.88736        -0.22106
C         22.84913        35.98948        -0.49192
C         21.61646        35.22567        -0.45265
C         22.85418        37.42700        -0.66762
C         21.66367        38.16861        -0.87633
C         22.87648        40.28491        -0.86385
C         21.67307        39.54689        -0.99407
C         22.90276        41.75334        -0.88725
C         21.72249        42.50281        -0.95071
C         22.94642        44.62270        -0.88155
C         21.74614        43.90039        -0.93509
C         22.95814        46.07888        -0.79013
C         21.77006        46.82430        -0.84303
C         22.98452        48.88304        -0.48226
C         21.78875        48.21557        -0.70256
C         25.49071        23.19668         1.17743
C         25.42990        24.56365         0.94001
C         24.29162        25.37520         1.33371
C         25.39058        27.40965         0.42174
C         24.23195        26.72834         0.89544
C         25.36335        28.81840         0.17915
C         24.10293        29.53806         0.29725
C         25.27229        31.59622        -0.47170
C         24.04358        30.92288         0.00695
C         25.29267        33.10464        -0.54118
C         24.08493        33.86411        -0.10197
C         25.32687        35.97580        -0.47447
C         24.06662        35.30638        -0.40828
C         25.33709        37.40065        -0.49043
C         24.08866        38.13648        -0.59658
C         25.30920        40.31444        -0.42920
C         24.06725        39.55936        -0.66312
C         25.37310        41.75966        -0.74864
C         24.14533        42.46977        -0.84459
C         25.43491        44.59135        -0.85135
C         24.18154        43.90059        -0.87093
C         25.44418        46.03744        -0.68030
C         24.19905        46.75927        -0.60775
C         25.45708        48.85018        -0.15500
C         24.20849        48.17457        -0.42533
C         25.50644        50.23143         0.17970
C         27.88148        23.06376         0.65013
C         26.68653        22.46432         1.03548
C         27.85026        24.40630         0.06610
C         26.52554        25.21371         0.22255
C         27.77631        27.34302        -0.23094
C         26.59621        26.68399         0.17671
C         27.77136        28.73981        -0.38740
C         26.56535        29.47902        -0.20232
C         27.76631        31.61895        -0.64364
C         26.56501        30.89896        -0.44418
C         27.77587        33.07439        -0.60437
C         26.57996        33.80736        -0.51015
C         27.80360        35.92473        -0.43896
C         26.56141        35.23570        -0.44984
C         27.80641        37.35281        -0.39467
C         26.58134        38.06815        -0.41728
C         27.83452        40.23799        -0.58440
C         26.58604        39.53886        -0.32338
C         27.84680        41.64484        -0.98028
C         26.59788        42.43111        -0.85206
C         27.93266        44.53795        -0.98392
C         26.65211        43.85696        -0.92070
C         27.92773        46.06028        -1.00966
C         26.65410        46.72433        -0.55082
C         27.88576        48.76753         0.22004
C         26.67802        48.11910        -0.19138
C         27.92257        50.14706         0.57186
C         26.68521        50.86023         0.50729
C         30.45426        20.40821         1.26379
C         29.24638        21.06308         1.20662
C         30.35858        23.12343         0.49216
C         29.16551        22.41790         0.79343
C         30.30739        24.51937         0.08674
C         29.09315        25.15750        -0.11491
C         30.27925        27.31537        -0.67813
C         28.97806        26.54235        -0.72853
C         30.26098        28.70938        -0.86764
C         28.94107        29.42303        -1.07451
C         30.22380        31.61033        -0.89809
C         29.00270        30.91745        -0.80963
C         30.25276        33.06296        -0.76110
C         29.02812        33.77514        -0.60337
C         30.27797        35.90665        -0.41439
C         29.03815        35.20024        -0.47855
C         30.27621        37.33955        -0.28255
C         29.05978        38.03861        -0.27587
C         30.34577        40.25923        -0.27804
C         29.02817        39.50964        -0.22390
C         30.39947        41.57119        -0.92176
C         29.17762        42.36992        -1.22332
C         30.38605        44.65864        -1.05083
C         29.15052        43.87540        -1.13711
C         30.35222        46.01097        -0.52281
C         29.15995        46.65473        -0.36991
C         30.40636        48.62693         0.75498
C         29.09675        47.95262         0.33635
C         30.41952        50.06374         1.27374
C         29.14759        50.82495         0.92361
C         30.41541        52.90208         1.26812
C         29.21401        52.21991         1.07632
C         32.99288        18.99291         1.31332
C         32.91594        20.35309         0.91085
C         31.66168        21.06579         0.91227
C         32.82733        23.12558         0.18948
C         31.61111        22.44188         0.54763
C         32.79408        24.52125        -0.15114
C         31.55157        25.21826        -0.19518
C         32.74054        27.24018        -0.99358
C         31.49568        26.58642        -0.56230
C         32.70536        28.71049        -1.32377
C         31.46007        29.46513        -1.05173
C         32.68311        31.62329        -1.43055
C         31.44730        30.87143        -1.09720
C         32.70849        33.11761        -1.21554
C         31.46859        33.79533        -0.78485
C         32.77530        35.90473        -0.53036
C         31.50364        35.19383        -0.56293
C         32.80111        37.30168        -0.26075
C         31.54738        38.05269        -0.21832
C         32.80527        40.20396        -0.09497
C         31.56752        39.43480        -0.26846
C         32.86199        41.55478        -0.69201
C         31.67445        42.00259        -1.29306
C         32.89136        44.65388        -0.79919
C         31.64871        44.16092        -1.34958
C         32.89320        45.97351        -0.36182
C         31.64614        46.79812        -0.53367
C         32.92307        48.67895         0.72962
C         31.63758        48.04678         0.28885
C         32.91087        50.18921         0.71357
C         31.69436        50.84339         0.97323
C         32.93016        52.96885         1.26258
C         31.68021        52.24999         1.17576
C         32.99449        54.34741         1.60267
C         35.40192        18.93315         0.94051
C         34.18793        18.30761         1.32955
C         35.35726        20.29375         0.49535
C         34.10249        21.01525         0.48473
C         35.24118        23.07039        -0.38031
C         34.03624        22.39109         0.11968
C         35.28366        24.53247        -0.38980
C         34.03720        25.22757        -0.39327
C         35.26345        27.33423        -0.80623
C         34.03539        26.59455        -0.72279
C         35.25744        28.71969        -1.00394
C         34.02228        29.42226        -1.39738
C         35.27098        31.65940        -1.23524
C         34.00882        30.90856        -1.47782
C         35.20321        33.09615        -1.24898
C         34.01418        33.80686        -1.08193
C         35.23102        35.95001        -0.74725
C         34.00388        35.23084        -0.80062
C         35.27152        37.28855        -0.31246
C         34.04826        37.96671        -0.09377
C         35.31574        40.21659        -0.06852
C         34.06874        39.42552         0.15215
C         35.14961        41.70621         0.04862
C         34.03267        42.37475        -0.53523
C         35.30829        44.50530        -0.35903
C         34.07366        43.81842        -0.61118
C         35.36796        45.94701        -0.31282
C         34.12931        46.66680        -0.13908
C         35.37565        48.77822        -0.04982
C         34.13154        48.03159         0.12165
C         35.38521        50.26903         0.25620
C         34.12551        50.90718         0.68988
C         35.42813        52.94892         1.21462
C         34.16217        52.28237         1.04154
C         35.44653        54.31507         1.57550
C         34.20353        54.99252         1.74598
C         37.88950        16.17397         1.49001
C         36.75673        16.90201         1.57171
C         37.83335        18.85484         0.53697
C         36.64964        18.22495         0.96985
C         37.81036        20.25081         0.21170
C         36.57321        20.93700         0.16092
C         37.81673        23.08918        -0.26929
C         36.57442        22.31568        -0.34105
C         37.77812        24.50390        -0.46015
C         36.51765        25.21567        -0.53308
C         37.75741        27.35698        -0.76784
C         36.52740        26.63661        -0.66100
C         37.77146        28.78206        -0.85909
C         36.47546        29.52431        -0.63864
C         37.75405        31.61610        -1.19455
C         36.47467        30.96499        -1.10221
C         37.77133        33.06607        -1.50307
C         36.46454        33.82131        -1.49406
C         37.76950        36.00603        -1.22961
C         36.45405        35.30492        -1.29697
C         37.81798        37.36296        -0.62710
C         36.59930        37.93309         0.09734
C         37.92815        40.12175         0.26531
C         36.61317        39.46711        -0.02181
C         38.08246        41.35980         0.80679
C         36.18663        42.48725         0.54558
C         37.82470        44.34832        -0.00955
C         36.45168        43.79239         0.11087
C         37.85429        45.87854        -0.23177
C         36.59243        46.62629        -0.15175
C         37.86581        48.75292         0.04700
C         36.64376        48.04186        -0.02053
C         37.88155        50.18349         0.33385
C         36.67244        50.88952         0.57945
C         37.91526        52.87687         1.32139
C         36.67958        52.23265         1.05509
C         37.93749        54.26901         1.69460
C         36.71291        54.99469         1.77776
C         37.97828        57.02132         2.25132
C         36.77013        56.38015         2.05876
C         40.35612        14.57793         1.08364
C         40.33374        15.94661         0.85220
C         39.01098        16.62491         0.58914
C         40.29081        18.77805         0.31166
C         39.09055        18.13486         0.53128
C         40.29361        20.16596        -0.29015
C         39.03086        20.95520        -0.02215
C         40.30469        23.08616        -0.08178
C         39.02429        22.35367        -0.11946
C         40.26737        24.55311        -0.34974
C         38.98351        25.24678        -0.56488
C         40.25497        27.37557        -0.84451
C         39.00241        26.64453        -0.75192
C         40.24222        28.78194        -0.98879
C         38.98109        29.48584        -0.98753
C         40.23061        31.62218        -1.59897
C         38.95967        30.92359        -1.14367
C         40.26199        33.09934        -1.26573
C         39.04158        33.80679        -1.29981
C         40.25768        35.90232        -1.17753
C         39.03442        35.21556        -1.22992
C         40.22101        37.37549        -1.21795
C         38.99417        38.03297        -0.69358
C         40.46131        40.06238         0.00585
C         39.14365        39.34956        -0.04167
C         40.52787        41.52216         0.32834
C         39.26370        42.25022         0.70473
C         40.30883        44.40712         0.07845
C         39.12882        43.69464         0.33343
C         40.32717        45.86239        -0.03867
C         39.10835        46.60182        -0.00705
C         40.36429        48.71373        -0.11560
C         39.09178        48.00742         0.01543
C         40.37680        50.25149         0.13067
C         39.11364        50.87317         0.53000
C         40.41189        52.82333         1.29230
C         39.15302        52.18186         1.07961
C         40.46226        54.14214         2.01979
C         39.17557        54.93132         1.92379
C         40.47954        56.99808         2.39776
C         39.20042        56.30628         2.20774
C         40.53543        58.28351         2.90937
C         42.77154        14.57966         1.17896
C         41.57584        13.89426         1.25181
C         42.79458        15.97762         0.92516
C         41.55649        16.67423         0.75387
C         42.77362        18.78938         0.39231
C         41.55153        18.08167         0.46375
C         42.79790        20.23021         0.12125
C         41.57404        20.92742        -0.08264
C         42.77415        23.04184        -0.38318
C         41.58464        22.34281        -0.22337
C         42.79686        24.46905        -0.76209
C         41.50129        25.22082        -0.84682
C         42.74488        27.35902        -0.86870
C         41.50964        26.68912        -0.83160
C         42.73666        28.78568        -0.97205
C         41.49636        29.49305        -1.08069
C         42.73384        31.60268        -1.26864
C         41.50947        30.90209        -1.24119
C         42.75773        33.06440        -1.19138
C         41.49045        33.78453        -1.14189
C         42.74171        35.93648        -0.99907
C         41.49410        35.21313        -1.09983
C         42.78537        37.32366        -1.09161
C         41.53182        38.09765        -1.19067
C         42.77821        40.19152        -0.83862
C         41.60235        39.49008        -0.71856
C         42.80382        41.62391        -0.62583
C         41.65072        42.29670        -0.19769
C         42.78960        44.40877        -0.27798
C         41.59440        43.71692        -0.08546
C         42.85945        45.90072        -0.32338
C         41.55306        46.57442        -0.02899
C         42.86184        48.67374         0.21796
C         41.61470        47.97618         0.05221
C         42.87547        50.11331         0.33864
C         41.65533        50.86083         0.47298
C         42.88112        52.93795         1.01298
C         41.63669        52.19341         0.97240
C         42.88980        54.30436         1.25902
C         41.69096        54.96655         1.68570
C         42.94844        57.07790         2.01512
C         41.69999        56.33287         1.99455
C         42.93301        58.40371         2.56472
C         41.76920        58.97665         3.01065
C         45.31606        16.07529         1.08579
C         44.02667        16.70576         0.82403
C         45.27638        18.82392         0.62234
C         43.99465        18.08151         0.55443
C         45.26873        20.31173         0.42072
C         44.00548        20.94084         0.06613
C         45.28942        23.12187        -0.23238
C         44.05980        22.29836        -0.57705
C         45.27118        24.52352        -0.35915
C         44.04497        25.24014        -0.62912
C         45.24188        27.38881        -0.66402
C         44.00756        26.63612        -0.74264
C         45.22898        28.77799        -0.86077
C         43.97714        29.49237        -1.04241
C         45.24770        31.60240        -1.55155
C         43.95958        30.89092        -1.21115
C         45.22842        33.08778        -1.24086
C         43.95866        33.74471        -1.04724
C         45.27006        35.93488        -0.57627
C         43.93916        35.15406        -0.49756
C         45.28358        37.38894        -0.90378
C         44.00044        38.07740        -1.07290
C         45.23745        40.20902        -1.18083
C         44.00984        39.47884        -1.09764
C         45.21199        41.61980        -1.13677
C         44.01443        42.32863        -0.85167
C         45.23229        44.42610        -0.41612
C         44.01763        43.73394        -0.55931
C         45.26457        45.69013         0.34524
C         43.96321        46.44939         0.57872
C         45.32093        48.61434         0.52137
C         44.07873        47.95630         0.38808
C         45.35213        50.06540         0.50187
C         44.11623        50.77744         0.44918
C         45.37574        53.00584         0.32335
C         44.09077        52.25911         0.46713
C         45.40994        54.41641         0.81075
C         44.07730        55.15870         0.83176
C         45.39964        57.13734         1.65429
C         44.13578        56.48155         1.56006
C         46.49548        16.70057         0.88443
C         47.79064        18.89138         0.51963
C         46.53882        18.07449         0.25569
C         47.76333        20.31929         0.40839
C         46.54177        21.02705         0.20304
C         47.74579        23.16943         0.13813
C         46.51924        22.42851         0.02425
C         47.72420        24.59327         0.02150
C         46.49502        25.28082        -0.22875
C         47.70097        27.43068        -0.23411
C         46.48280        26.69357        -0.38128
C         47.70257        28.86234        -0.37313
C         46.45980        29.54577        -0.73504
C         47.62492        31.75555        -0.54386
C         46.44755        30.90868        -0.93864
C         47.69469        33.00487        -1.42984
C         46.41210        33.77385        -1.23593
C         47.72031        35.94039        -1.36514
C         46.58256        35.17171        -0.69013
C         47.74392        37.37284        -1.47730
C         46.51098        38.10730        -1.29563
C         47.70382        40.25067        -1.57468
C         46.48030        39.50428        -1.39225
C         47.72727        41.62742        -1.43285
C         46.45025        42.36473        -1.36010
C         47.76195        44.47405        -0.64629
C         46.45687        43.86086        -0.96340
C         47.78610        45.71551        -0.06372
C         46.56977        46.40829         0.42763
C         47.79675        48.56123         0.55072
C         46.56990        47.89193         0.53647
C         47.82755        50.01816         0.64732
C         46.59137        50.74727         0.56496
C         47.92688        52.92939         0.58550
C         46.67149        52.19006         0.10025
C         47.90210        54.39319         0.92741
C         46.58970        55.09454         0.99377
C         46.57069        56.49205         1.36231
C         50.20538        18.97292         0.81869
C         49.01350        18.25075         0.69557
C         50.21722        20.37116         0.73348
C         48.98602        21.05894         0.50345
C         50.18245        23.22981         0.55351
C         48.96482        22.48453         0.39361
C         50.16353        24.64447         0.44721
C         48.93846        25.32866         0.16571
C         50.15096        27.48027         0.19445
C         48.92237        26.74942         0.04562
C         50.14471        28.90528         0.03837
C         48.90367        29.57955        -0.24758
C         50.09172        31.73612        -0.36321
C         48.93454        31.01736        -0.45302
C         50.11019        33.24155        -0.50942
C         48.90816        33.84183        -1.15264
C         50.22629        35.89787        -1.63022
C         48.93736        35.21346        -1.41573
C         50.12708        37.28165        -2.26222
C         48.93350        38.05705        -1.76173
C         50.23041        40.24158        -1.80231
C         48.92036        39.52546        -2.09821
C         50.21380        41.65624        -1.54649
C         48.97147        42.36642        -1.37088
C         50.21672        44.43216        -0.90143
C         48.97934        43.73263        -0.98968
C         50.23331        45.76560        -0.41253
C         49.07861        46.31753         0.39261
C         50.27026        48.47586         0.62584
C         49.05023        47.83751         0.48323
C         50.35976        50.00382         0.60168
C         49.04289        50.68225         0.84865
C         50.34639        52.86615         1.25283
C         49.02276        52.12522         1.28329
C         50.27704        54.24389         1.58826
C         49.08491        54.93459         1.61825
C         52.67518        20.49763         1.15299
C         51.44932        21.12909         0.89336
C         52.60850        23.30712         1.04467
C         51.41281        22.55341         0.81868
C         52.55628        24.72657         1.02904
C         51.36910        25.38778         0.68236
C         52.57909        27.56206         0.65621
C         51.35413        26.82317         0.53555
C         52.57658        28.97271         0.41654
C         51.34307        29.62727         0.17462
C         52.62570        31.76346        -0.13514
C         51.31671        31.12218         0.26489
C         52.56926        33.22691        -0.39852
C         51.38830        33.71708        -1.21840
C         52.73999        35.80141        -1.92335
C         51.39680        35.21984        -1.49521
C         52.73039        37.33481        -2.05550
C         51.43869        38.08446        -2.22435
C         52.70229        40.24809        -1.88368
C         51.43876        39.55474        -1.93857
C         52.69418        41.68346        -1.67852
C         51.44793        42.36033        -1.47144
C         52.68077        44.48281        -1.22790
C         51.45946        43.76962        -1.21842
C         52.65292        45.92762        -0.97122
C         51.41942        46.48666        -0.39632
C         52.72938        48.08968         0.81241
C         51.46561        47.70862         0.32438
C         52.74353        50.08742         1.57098
C         51.53787        50.72203         1.26278
C         52.86992        52.77279         1.26883
C         51.58264        52.14685         1.23019
C         53.84849        21.23246         1.32839
C         55.08439        23.40066         1.42937
C         53.84702        22.63064         1.27741
C         55.04490        24.80804         1.50251
C         53.71871        25.51911         1.57234
C         54.98537        27.66367         1.15279
C         53.78374        26.93011         1.04523
C         55.00562        29.05856         0.81498
C         53.80539        29.70449         0.44616
C         55.13094        31.77560        -0.24103
C         53.80530        31.11066         0.06816
C         55.10111        33.29482        -0.14993
C         53.83166        34.00755        -0.40551
C         55.03040        36.12878        -0.80018
C         53.86401        35.31573        -1.04457
C         55.11439        37.48972        -1.34793
C         53.96091        38.11429        -1.74194
C         55.19782        40.25931        -1.88844
C         53.94347        39.55429        -1.91240
C         55.14872        41.73057        -2.05314
C         53.89972        42.41591        -1.65762
C         55.18668        44.51774        -1.29633
C         53.92738        43.82391        -1.43877
C         55.22222        45.85625        -0.78839
C         53.97988        46.63929        -0.69646
C         55.17556        48.42610         0.65781
C         53.96667        47.76268         0.26340
C         55.20702        49.74866         1.25698
C         54.03375        50.63254         1.41037
C         54.05372        52.04438         1.25567
C         57.49442        23.47556         1.74249
C         56.33716        22.75352         1.49127
C         57.45629        24.87120         1.89291
C         56.22957        25.56136         1.70491
C         57.36348        27.78479         1.77888
C         56.20199        27.02005         1.59829
C         57.40767        29.17886         1.43168
C         56.23954        29.80774         0.92479
C         57.47893        31.90374         0.65303
C         56.29271        31.17403         0.52522
C         57.54858        33.28345         0.11222
C         56.26791        33.99249        -0.11585
C         57.55766        36.22525        -0.30453
C         56.27400        35.47062        -0.23939
C         57.56160        37.54712        -0.68808
C         56.46512        38.12278        -1.55181
C         57.69847        40.31155        -1.72482
C         56.42705        39.63728        -1.62983
C         57.74559        41.69403        -2.41739
C         56.43004        42.49903        -2.20361
C         57.64096        44.50090        -1.32708
C         56.44188        43.86531        -1.59880
C         57.69651        45.72317        -0.43896
C         56.39584        46.48036        -0.35137
C         57.65152        48.43591         0.50692
C         56.40315        47.78411         0.26212
C         57.65765        49.65116         1.20373
C         56.46814        50.29326         1.55207
C         59.98085        25.01419         2.34778
C         58.64664        25.61189         2.36414
C         59.84832        27.89408         2.34512
C         58.57476        27.15772         2.34091
C         59.81760        29.31748         2.07373
C         58.62223        29.93779         1.59091
C         59.83930        32.10817         1.44057
C         58.64965        31.32048         1.22661
C         59.88227        33.51123         1.13804
C         58.77508        34.12173         0.38983
C         59.90354        36.32499         0.45814
C         58.72391        35.59024         0.25468
C         59.99814        37.66505        -0.10095
C         58.73131        38.44641        -0.38437
C         60.17570        39.87827        -1.86202
C         58.85933        39.59112        -1.38852
C         60.23078        42.07511        -2.53775
C         58.97716        42.55673        -2.13273
C         60.05747        44.74928        -1.83280
C         58.90202        43.92199        -1.75603
C         59.87473        46.25291        -1.74946
C         58.83548        46.65796        -0.74576
C         60.02744        48.72249        -0.26009
C         58.86302        47.91774        -0.14536
C         61.08867        25.78269         2.56465
C         61.02606        27.20651         2.58612
C         60.97012        30.10884         2.26629
C         60.97566        31.46228         1.98323
C         60.96194        34.35144         1.48081
C         61.00820        35.68590         1.09330
C         61.22413        38.14547        -0.50346
C         61.31496        39.23584        -1.40292
C         61.38741        42.86085        -2.55084
C         61.28611        44.21085        -2.22360
C         61.13579        47.05942        -1.63909
C         61.15951        48.24994        -0.96106
O         28.43280        41.81332        -2.35907
O         40.36497        49.67399        -1.21614
O         25.88951        40.04683         0.90988
O         37.02003        41.91968         1.50190
O         36.98726        36.00622        -2.47626
O         32.59382        27.72697        -2.39372
O         29.62510        40.15622         0.99240
O         45.36772        36.86915         0.55883
O         40.76826        37.95773        -2.45670
O         52.69446        48.76852         2.03206
O         48.34103        53.88093        -0.42014
O         60.37607        40.74527        -2.94020
O         42.08436        24.65772        -2.07324
O         45.31569        19.67703         1.79167
O         35.81914        22.47408        -1.59534
O         36.03020        39.87346        -1.31273
O         46.03824        45.65718         1.60508
O         53.28417        46.80476        -1.97195
O         44.48128        52.86556        -0.84602
O         33.34049        39.98858         1.27859
O         55.56289        42.31061        -3.37182
O         31.75358        43.06407        -2.20162
O         52.84843        33.99614         0.80861
O         58.34589        26.39604         3.56695
O         55.37002        36.13794         0.70123
O         40.04239        39.22339         1.14463
O         37.93137        44.95030        -1.35679
O         25.05419        32.32380        -1.75464
O         37.08811        33.40662        -2.75870
O         29.61025        47.76875         1.71906
O         40.38829        24.05746         1.03865
O         58.53849        33.45015        -0.95169
O         35.30297        49.78875        -1.14085
O         46.33585        43.42590        -2.35992
O         23.58011        33.60044         1.24936
O         34.15597        30.11206        -2.70931
O         52.26715        37.74664        -3.40380
O         40.26312        41.90778         1.72354
O         32.52434        32.52914        -2.56649
O         26.89688        24.56611        -1.04484
O         40.17772        31.56156        -3.06807
H         39.37464        32.04575        -3.36075
O         43.24576        46.27723        -1.67710
H         42.53356        46.00297        -2.29213
O         53.42744        25.65928         3.01635
H         54.17304        26.15606         3.41695
O         51.43678        33.06402        -2.50341
H         52.08613        33.55574        -3.06288
O         55.38873        31.48334        -1.65513
H         56.29229        31.80167        -1.86923
O         47.37159        32.23909         0.81291
H         47.30937        31.45955         1.40432
O         53.00319        35.25064        -3.26556
H         52.75074        35.95247        -3.91176
O         49.28608        45.82653         1.76494
H         50.08609        46.27240         2.11615
O         31.71100        47.30120        -1.94265
H         32.59472        47.71410        -2.06531
O         50.11211        33.80894         0.83907
H         49.18074        33.77898         1.16191
O         48.77000        39.59554        -3.56724
H         49.09965        38.73827        -3.93733
O         46.84588        52.04263        -1.33083
H         47.23730        52.88734        -1.65592
O         36.37389        29.66470         0.85283
H         36.61204        28.79456         1.24098
O         40.26136        19.91601        -1.75073
H         39.53875        19.27564        -1.92636
O         43.66624        34.97189         0.92822
H         43.98612        35.79201         1.37358
O         32.98986        48.33641         2.17699
H         32.23092        48.79537         2.61436
O         36.75920        37.59086         1.50097
H         37.57671        38.02191         1.83243
O         30.44081        49.95805         2.74109
H         29.81047        49.23128         2.96555
O         49.83634        37.02660        -3.68444
H         50.71003        37.00489        -4.14477
O         58.36986        39.12665         0.87951
H         58.23090        38.43108         1.55759
O         44.16147        22.05152        -2.03901
H         43.75170        22.81699        -2.49916
O         57.84698        41.39064        -3.82915
H         56.95444        41.55216        -4.22208
O         47.84189        32.53405        -2.79234
H         47.77598        33.30004        -3.39921
O         43.80141        55.49593        -0.57318
H         43.88479        54.64590        -1.07545
O         50.64307        50.28375        -0.83027
H         49.84551        50.03468        -1.34576
O         47.07955        34.97448         0.67250
H         46.72937        35.73300         1.19906
O         48.58342        52.11136         2.69798
H         49.24537        51.60052         3.21055
O         57.96311        45.18371         0.91707
H         57.98819        45.95008         1.53002
O         56.85153        37.68434        -2.91467
H         56.37472        38.24896        -3.56031
O         28.70251        26.34614        -2.16027
H         27.94347        25.71212        -2.20734
O         46.46516        17.89145        -1.19321
H         47.26087        17.39523        -1.47748
O         59.29700        46.61191        -3.07548
H         59.16345        47.58421        -3.07853
O         51.18896        31.43300         1.70275
H         51.11168        32.41850         1.76288
O         38.62555        16.21545        -0.77322
H         37.72561        16.56910        -0.93914
O         28.02208        46.44199        -2.43235
H         28.86451        46.07518        -2.77889
O         28.64955        29.27701        -2.50543
H         28.68055        28.30850        -2.70431
O         45.37347        31.48846        -3.00780
H         45.50050        30.54082        -3.22467
O         43.55234        46.23757         1.94438
H         44.37772        46.12531         2.47263
O         22.15390        26.81465        -0.27152
H         22.14978        25.83982        -0.15711
O         40.60095        53.78301         3.45152
H         40.60610        54.62296         3.95903
H         23.32920        23.84962         2.55670
H         21.57140        25.37042         3.43008
H         21.25542        27.62812         2.45403
H         20.76380        29.01647         0.88976
H         20.69087        31.45851         0.49444
H         20.61453        33.35727        -0.29552
H         20.66976        35.74593        -0.65361
H         20.70112        37.64609        -0.95625
H         20.72071        40.06586        -1.16631
H         20.74628        42.00130        -0.98732
H         20.78376        44.42844        -0.95194
H         20.80478        46.32668        -1.00291
H         22.96811        49.97421        -0.36427
H         20.84762        48.78004        -0.75559
H         24.62335        22.67808         1.60790
H         24.58123        50.82257         0.19666
H         26.67822        21.42068         1.37607
H         26.65234        51.92622         0.76645
H         30.46222        19.35396         1.56684
H         28.33382        20.50905         1.46003
H         30.37530        53.99370         1.38258
H         28.30024        52.82557         0.99605
H         32.08815        18.45985         1.63161
H         32.06982        54.91467         1.77477
H         34.18839        17.25720         1.64865
H         34.19460        56.05465         2.02360
H         37.95457        15.20093         1.99807
H         35.91629        16.52350         2.17041
H         37.97993        58.10380         2.43535
H         35.84895        56.97492         2.10805
H         39.41675        14.00916         1.11883
H         39.62260        58.79169         3.24758
H         43.71168        14.02613         1.30105
H         41.57127        12.81041         1.43204
H         43.86334        58.98338         2.62117
H         41.77922        59.99389         3.42574
H         45.32660        15.05296         1.48947
H         45.45158        58.17924         1.99814
H         47.43015        16.16579         1.10752
H         47.51908        57.03900         1.43864
H         51.13592        18.41318         0.97743
H         49.06420        17.15425         0.74544
H         51.19417        54.76153         1.90786
H         49.06049        55.95263         2.02957
H         52.73567        19.40366         1.22093
H         52.92865        53.86785         1.19960
H         54.77835        20.68200         1.52232
H         55.00928        52.57471         1.13465
H         58.44281        22.93393         1.85651
H         56.40989        21.66312         1.39029
H         58.60824        50.14648         1.44310
H         56.52470        51.27549         2.04188
H         60.09488        23.94025         2.14694
H         60.06863        49.71444         0.20700
H         62.07900        25.30773         2.60970
H         61.97912        27.74816         2.65105
H         61.88630        29.65539         2.66603
H         61.89855        32.02991         2.15881
H         61.81776        33.94625         2.03761
H         61.90245        36.27540         1.33791
H         62.14334        37.59800        -0.25070
H         62.28763        39.50162        -1.83598
H         62.34237        42.42485        -2.87000
H         62.18030        44.84326        -2.29351
H         62.00483        46.77604        -2.24846
H         62.06952        48.86748        -0.97513
