         490
 CSIRO Nanostructure Databank - Neutral Graphene Oxide Data Set
C         37.54436        50.18968        -0.64732
C         36.34853        50.90121        -0.67041
C         37.59385        52.96903        -0.77356
C         36.37122        52.29591        -0.74538
C         40.07643        48.71826        -0.88991
C         40.04519        50.10755        -0.66296
C         38.78745        50.85553        -0.68584
C         40.13261        53.00154        -0.84638
C         38.80836        52.27021        -0.71350
C         40.11317        54.39731        -0.26389
C         42.47079        48.64128        -0.42515
C         41.26457        48.00804        -0.81835
C         42.45153        50.03046        -0.17038
C         41.26679        50.77502        -0.35884
C         42.52156        52.88012        -0.08366
C         41.32429        52.21899        -0.32472
C         42.56101        54.35893        -0.21912
C         41.25985        55.05210        -0.04490
C         44.89905        45.81521        -0.80750
C         43.74788        46.48552        -0.57511
C         44.95004        48.60570        -0.22680
C         43.72524        47.91635        -0.39169
C         44.95258        49.98439         0.18107
C         43.64091        50.67791         0.49595
C         44.92350        52.83993         0.56277
C         43.72833        52.18003         0.27329
C         45.02469        54.27584         0.53520
C         43.85704        55.07289         0.09035
C         44.99548        57.12712         0.81980
C         43.86124        56.50767         0.41797
C         47.41313        44.37915        -0.48644
C         47.43628        45.75931        -0.69967
C         46.19119        46.54758        -1.03445
C         47.41861        48.57722        -0.18860
C         46.20188        47.92841        -0.41173
C         47.40824        49.95646         0.27769
C         46.14711        50.63336         0.43460
C         47.40703        52.72513         1.20431
C         46.06954        51.98754         1.11889
C         47.43272        54.23367         1.19858
C         46.18643        54.97235         0.90246
C         47.47836        57.08729         1.09980
C         46.23840        56.40168         0.95866
C         47.54734        58.51319         1.20530
C         49.82572        44.24229        -0.53265
C         48.58966        43.62638        -0.34640
C         49.84670        45.63616        -0.79034
C         48.67539        46.45562        -0.75452
C         49.86204        48.65915        -0.34796
C         48.68526        47.90915        -0.51762
C         49.87748        49.82872         0.61783
C         48.61233        50.63526         0.55608
C         49.88833        52.71996         0.96408
C         48.66282        52.01184         0.89778
C         49.88913        54.15555         1.03813
C         48.72334        54.92139         1.01428
C         49.93374        57.09164         0.96067
C         48.72801        56.37292         1.02635
C         49.99233        58.52066         1.03683
C         48.73696        59.19694         1.18977
C         52.33924        41.54349         0.36419
C         51.20526        42.10603        -0.07340
C         52.30714        44.34496        -0.01026
C         51.16853        43.50586        -0.63778
C         52.32916        45.69762        -0.66175
C         51.13719        46.18761        -1.12240
C         52.37318        48.62899        -0.32932
C         51.13197        48.25337        -0.84104
C         52.43886        49.84549         0.55305
C         51.14726        50.64601         0.55215
C         52.49960        52.63418         1.13669
C         51.14854        51.98466         0.82773
C         52.47546        54.15669         1.15054
C         51.17759        54.88556         1.11655
C         52.47856        57.06034         0.66240
C         51.17643        56.33091         0.72402
C         52.49796        58.52233         0.91655
C         51.23460        59.22296         1.02475
C         52.48429        61.33772         1.19736
C         51.31037        60.66782         1.05409
C         54.95141        40.13285         0.47216
C         54.85431        41.45015         0.10256
C         53.66106        42.27679         0.53275
C         54.78398        44.28900        -0.56049
C         53.63528        43.63831        -0.11209
C         54.75953        45.71710        -0.80495
C         53.56384        46.44420        -0.76930
C         54.83215        48.53309        -0.40395
C         53.57340        47.88605        -0.59957
C         54.84217        49.95808        -0.10367
C         53.67053        50.63073         0.19260
C         54.92256        52.78124         0.39359
C         53.58289        52.12505         0.17311
C         54.94129        54.17620         0.64723
C         53.72611        54.89949         0.83681
C         54.96593        57.00698         0.78973
C         53.73875        56.29711         0.82761
C         55.01539        58.51602         0.68671
C         53.70318        59.17706         1.03801
C         55.06101        61.30388         1.15576
C         53.75952        60.61131         1.51340
C         55.14642        62.64513         0.63606
C         57.31322        39.92858        -0.15643
C         56.14747        39.37040         0.32784
C         57.26176        41.27429        -0.75166
C         55.96024        42.08647        -0.63375
C         57.23796        44.24123        -1.02738
C         56.02786        43.56318        -0.74766
C         57.27925        45.65910        -1.01804
C         56.00925        46.44766        -1.20781
C         57.27634        48.54040        -0.60044
C         56.04583        47.85656        -0.65405
C         57.29775        49.96186        -0.36798
C         56.10140        50.66647        -0.13800
C         57.37151        52.77290         0.20385
C         56.11750        52.07682         0.15645
C         57.38220        54.15843         0.43676
C         56.17805        54.88788         0.62062
C         57.40816        57.09738         0.57233
C         56.16685        56.31080         0.74346
C         57.50431        58.47161         1.07087
C         56.20096        59.09916         1.51180
C         57.50482        61.26893         1.40823
C         56.26078        60.59641         1.35235
C         57.37456        62.76476         1.63622
C         56.31728        63.33572         0.72293
C         59.85581        37.16454         0.06790
C         58.64397        37.83849         0.03076
C         59.81279        39.96761        -0.27589
C         58.58776        39.23408        -0.14461
C         59.81832        41.35778        -0.57601
C         58.55217        42.00054        -1.00923
C         59.85523        44.25469        -1.31633
C         58.51877        43.48957        -1.25642
C         59.72775        45.69162        -0.88915
C         58.52290        46.37077        -0.93648
C         59.71110        48.55477        -0.87329
C         58.51802        47.84108        -0.79619
C         59.74855        49.98096        -0.74022
C         58.54743        50.66902        -0.40998
C         59.81996        52.73973        -0.25735
C         58.58842        52.05903        -0.11964
C         59.91682        54.15116         0.12564
C         58.66402        54.87687         0.48441
C         59.94476        57.05570         0.59135
C         58.68142        56.35944         0.32780
C         59.97761        58.40249         0.91086
C         58.71948        59.12068         1.14139
C         59.98964        61.22496         1.50697
C         58.75817        60.56559         1.41340
C         60.00488        62.66653         1.80609
C         58.72173        63.48001         1.72974
C         60.10068        65.50561         1.29951
C         58.87516        64.88339         1.33027
C         62.43190        35.77459         0.00376
C         62.35457        37.18122         0.07188
C         61.08188        37.86662         0.02220
C         62.27524        40.03168         0.00680
C         61.05816        39.28383        -0.09009
C         62.24572        41.44792        -0.10005
C         61.02075        42.11093        -0.46537
C         62.25168        44.22272        -0.55488
C         61.04047        43.52245        -0.68103
C         62.25274        45.67015        -0.87502
C         60.98861        46.44421        -0.55933
C         62.23711        48.60659        -0.92884
C         60.98447        47.82345        -1.23227
C         62.24251        49.98983        -1.03045
C         60.96865        50.70127        -0.92906
C         62.17567        52.89330        -1.09292
C         60.97550        52.09740        -0.73297
C         62.29478        54.28653        -0.71596
C         61.01355        55.01840        -0.45221
C         62.45614        57.04128         0.21978
C         61.16318        56.27145         0.38091
C         62.41263        58.48806         0.47246
C         61.25758        59.08792         0.95210
C         62.56298        61.23116         1.21193
C         61.31006        60.45145         1.59728
C         62.60665        62.62884         1.67150
C         61.31630        63.40405         1.82418
C         62.58644        65.56294         1.54178
C         61.33433        64.85722         1.59176
C         62.61423        66.98559         1.51784
C         64.87041        35.83461         0.15765
C         63.65221        35.12554         0.04167
C         64.82610        37.26353         0.23868
C         63.56423        37.93086         0.18694
C         64.69131        40.10938         0.55603
C         63.51546        39.35961         0.23191
C         64.62809        41.52402         0.56292
C         63.44884        42.18968         0.13009
C         64.69670        44.35024        -0.02560
C         63.45392        43.60341        -0.12264
C         64.76756        45.71955        -0.40926
C         63.53324        46.42574        -0.81928
C         64.74032        48.63688        -0.76183
C         63.47615        47.89693        -0.45907
C         64.73840        50.02143        -0.86655
C         63.48901        50.71801        -1.05204
C         64.77589        52.90008        -1.60681
C         63.47539        52.12668        -1.40495
C         64.73113        54.38112        -1.23871
C         63.49823        55.03355        -0.86821
C         64.62610        57.26635        -1.10106
C         63.52150        56.41585        -0.55898
C         64.67735        58.66145        -0.50907
C         63.63037        59.23605         0.17714
C         64.92394        61.34776         0.44138
C         63.67318        60.63782         0.61982
C         65.10250        62.68225         1.03296
C         63.88139        63.40706         1.57741
C         65.05417        65.59770         1.36703
C         63.84406        64.87948         1.52055
C         65.04794        67.00909         1.36066
C         63.80235        67.68086         1.45693
C         67.45957        33.03865         0.21527
C         66.21535        33.73099         0.16183
C         67.42602        35.86267         0.12434
C         66.11831        35.11029         0.22026
C         67.33973        37.36808         0.42311
C         66.01301        38.04494         0.48023
C         67.05292        40.15002         1.49035
C         65.93051        39.40063         0.78416
C         67.07743        41.62736         1.17631
C         65.75751        42.35988         1.12498
C         67.07216        44.45630         0.53800
C         65.87063        43.72948         0.47433
C         67.14143        45.81251         0.11837
C         65.95992        46.44830        -0.32934
C         67.13422        48.65953        -0.12242
C         66.04316        47.87495        -0.84805
C         67.19184        50.11869        -0.54383
C         65.99571        50.76155        -0.83445
C         67.26885        52.88032        -1.29820
C         65.93609        52.27288        -0.82211
C         67.21967        54.40113        -1.26082
C         65.94846        55.09542        -1.18368
C         67.15453        57.25298        -1.12289
C         65.95467        56.52982        -1.07860
C         67.15526        58.69782        -1.05118
C         65.84885        59.48380        -0.99405
C         67.22595        61.50471        -0.39566
C         65.99934        60.79274        -0.25334
C         67.32545        62.88171         0.01237
C         66.25703        63.49130         0.66660
C         67.48637        65.66951         0.66396
C         66.38219        64.85928         1.29757
C         67.48023        67.07679         0.77826
C         66.29100        67.76492         1.19762
C         67.50353        69.88037         1.03992
C         66.34622        69.14775         1.36285
C         70.00595        31.60610         0.64596
C         69.88529        33.00235         0.85735
C         68.63606        33.67479         0.58490
C         69.70302        35.84034         1.45446
C         68.50851        35.11895         0.90882
C         69.67559        37.33619         1.55788
C         68.51771        38.09347         0.99259
C         69.58192        40.22145         1.60028
C         68.42333        39.52174         1.39076
C         69.54766        41.69098         1.97654
C         68.24309        42.39349         1.57524
C         69.57413        44.52463         0.94583
C         68.27196        43.86626         1.17840
C         69.60504        45.82686         0.39677
C         68.41044        46.52721         0.11875
C         69.65931        48.64483        -0.21090
C         68.45073        47.92707        -0.14966
C         69.65778        50.08859        -0.39784
C         68.44890        50.80929        -0.48022
C         69.70786        52.93800        -1.01086
C         68.45337        52.32995        -0.47678
C         69.68150        54.31556        -1.61440
C         68.40921        55.09936        -1.30180
C         69.61840        57.26702        -1.22888
C         68.41628        56.54279        -1.22914
C         69.60697        58.69665        -1.21867
C         68.34623        59.40340        -1.13688
C         69.58490        61.56035        -1.06845
C         68.38611        60.85178        -0.91871
C         69.67579        62.95047        -0.73280
C         68.55066        63.61048        -0.20167
C         69.79848        65.75200        -0.17992
C         68.60080        65.01549         0.10236
C         69.84102        67.14010         0.06821
C         68.66446        67.82084         0.46002
C         69.79253        70.01731         0.03429
C         68.64692        69.25691         0.54699
C         69.68672        71.40077        -0.21706
C         72.32561        31.64360         1.32787
C         71.19625        30.93551         0.87183
C         72.24877        33.00676         1.53794
C         71.04321        33.73273         1.30970
C         72.18009        35.94566         1.65250
C         71.00098        35.14997         1.51152
C         72.18764        37.31297         1.77107
C         70.94278        38.10029         1.80709
C         72.04047        40.32750         1.53932
C         70.89084        39.57027         1.60380
C         71.99153        41.74197         1.43201
C         70.80172        42.44338         1.53748
C         72.00194        44.63217         1.30030
C         70.77677        43.85307         1.27444
C         72.06398        45.88461         0.79610
C         70.92715        46.42997        -0.02722
C         72.09342        48.63480        -0.28391
C         70.90972        47.94161        -0.13197
C         72.09339        50.02645        -0.55076
C         70.92029        50.75189        -0.60168
C         72.07507        53.00976        -0.49193
C         70.98026        52.16886        -1.13980
C         72.08478        54.34345        -0.62682
C         70.99041        55.09012        -1.30202
C         72.07833        57.39676        -0.73990
C         70.93559        56.59143        -1.20784
C         72.02990        58.75442        -0.87691
C         70.81577        59.41378        -1.23839
C         72.04994        61.60726        -1.59273
C         70.75755        60.85038        -1.70268
C         72.09237        62.92357        -1.30443
C         70.91112        63.67598        -0.91404
C         72.13881        65.85022        -0.97820
C         70.95770        65.05609        -0.68054
C         72.23129        67.15789        -0.66742
C         71.15927        67.88407         0.09759
C         72.08115        70.09677        -0.77808
C         71.00586        69.35318        -0.27210
C         71.96225        71.46707        -1.01593
C         70.75952        72.11964        -0.73682
O         67.97705        43.50348         2.58932
O         70.01373        37.74059         2.91329
O         59.29893        63.10806         3.03499
O         43.41527        54.82544        -1.31095
O         62.04937        62.90342         3.01629
O         47.45501        53.47400         2.47634
O         68.32424        38.03885        -0.47521
O         51.78264        56.64065        -0.58155
O         64.84254        62.80065         2.51003
O         62.55852        52.51002        -2.49323
O         51.13554        47.34685        -1.91581
O         58.51414        42.54588        -2.38047
O         57.93553        56.89222        -0.80882
O         62.12699        56.23122         1.44122
O         71.37741        55.87131        -2.47422
O         51.87293        54.65751         2.40770
O         68.61671        35.32498         2.34425
O         59.59155        54.41677         1.52719
O         62.96228        46.04468        -2.10264
O         56.32978        41.37047        -1.86312
O         66.81603        64.63452         2.68295
H         66.17529        63.98352         3.06610
O         51.97742        44.50245         1.41081
H         52.50845        45.25051         1.75801
O         70.46448        60.76778        -3.14534
H         70.33861        61.68439        -3.47001
O         65.03857        52.83168        -3.03405
H         64.15835        52.86264        -3.47820
O         53.11644        52.52653        -1.15858
H         53.76579        52.20115        -1.81739
O         66.72601        48.69053         1.28360
H         67.45035        49.09959         1.80132
O         69.67584        54.13101        -3.07060
H         70.17646        54.90198        -3.44023
O         69.57332        41.69307         3.43447
H         69.27705        42.59070         3.71448
O         66.69527        40.06423         2.91519
H         67.40332        40.52071         3.42298
O         65.36525        42.63945         2.51750
H         66.12944        43.11949         2.92153
O         71.59507        67.87614         1.50309
H         70.86673        68.26073         2.03586
O         40.36837        53.14441        -2.28615
H         39.63576        53.68027        -2.65580
O         52.62267        49.41179         1.95791
H         52.81236        50.24437         2.46265
O         68.30033        52.75603         0.93325
H         69.05428        52.38559         1.43950
O         55.99010        58.77078         2.90397
H         55.28911        59.38474         3.24221
O         51.47617        43.41598        -2.05257
H         50.78139        42.87926        -2.48670
O         45.70263        51.67548         2.50218
H         46.10648        52.38513         3.06064
O         71.33136        52.03799        -2.55323
H         70.74738        52.66130        -3.05810
O         67.80811        35.71598        -1.27394
H         68.23205        36.56181        -1.55224
O         64.31279        57.45675        -2.54976
H         64.34151        56.56897        -2.96880
O         61.45880        60.19364         3.03166
H         61.60572        61.07450         3.45918
O         46.27172        46.76408        -2.49224
H         45.48749        47.29315        -2.75135
O         67.57065        52.41978        -2.62448
H         66.81734        52.65183        -3.21568
O         71.15460        45.95284        -1.40405
H         71.18609        44.97324        -1.37145
O         60.94625        47.61068        -2.66843
H         60.97229        48.48541        -3.10817
O         49.88795        49.22312         1.96163
H         50.83879        49.07210         2.20410
O         65.65712        52.64607         0.55097
H         66.50382        52.60810         1.05927
O         53.80203        42.50120         1.97579
H         53.04764        43.08744         2.22796
O         65.54588        59.87236        -2.37599
H         65.14814        59.07928        -2.81333
O         63.40086        47.89540         1.01913
H         63.64066        48.79209         1.33686
O         66.40820        47.80324        -2.25116
H         65.70278        47.31709        -2.72800
O         55.29623        58.86384        -0.69844
H         54.63361        58.41758        -1.26667
O         55.90265        46.63624        -2.67371
H         55.87023        45.74372        -3.08084
O         60.99107        46.62871         0.88125
H         60.24123        47.21500         1.11749
O         60.54670        55.47890        -1.76295
H         60.58294        54.72369        -2.38778
O         53.81436        60.51547         3.00629
H         52.93631        60.19644         3.30789
O         56.77700        62.89499         2.97396
H         57.50927        62.73147         3.61400
O         52.87730        52.19200         2.46647
H         52.44259        52.81133         3.09845
O         43.36963        50.48508         1.92256
H         44.15411        50.84419         2.41408
O         60.22022        44.35988        -2.72502
H         59.86381        43.54988        -3.16330
H         37.50850        49.09341        -0.58965
H         35.38995        50.36542        -0.63745
H         37.58601        54.06585        -0.84710
H         35.43218        52.86481        -0.78286
H         39.15790        48.18286        -1.16531
H         39.15608        54.91272        -0.09772
H         41.25202        46.93638        -1.05605
H         41.24260        56.09454         0.30534
H         44.85714        44.73267        -0.98935
H         42.80645        45.92280        -0.50737
H         44.97456        58.20989         0.99979
H         42.95130        57.09729         0.24214
H         46.45537        43.84742        -0.41349
H         46.62079        59.09328         1.30962
H         48.51579        42.54848        -0.14554
H         48.71536        60.29066         1.28754
H         52.30619        40.50342         0.72454
H         50.28725        41.49735        -0.11680
H         52.48238        62.43716         1.21874
H         50.38671        61.24930         0.92011
H         54.11704        39.65748         1.00665
H         54.27615        63.08084         0.12221
H         56.15379        38.35223         0.73999
H         56.40613        64.34986         0.30847
H         59.84547        36.07213         0.17445
H         57.71317        37.26087         0.10804
H         60.12194        66.56259         0.99911
H         57.98542        65.44471         1.01400
H         61.51961        35.17230        -0.09537
H         61.67555        67.55184         1.57320
H         63.66129        34.03003        -0.02208
H         63.76973        68.77855         1.45225
H         67.43943        31.95206         0.05208
H         65.31091        33.11206         0.08107
H         67.47350        70.97234         1.15578
H         65.46826        69.70199         1.72104
H         69.13656        31.03449         0.29386
H         68.74469        71.92684        -0.01063
H         73.26606        31.10942         1.52142
H         71.25900        29.85191         0.70200
H         73.13624        33.53313         1.91388
H         73.15534        35.43898         1.63131
H         73.15271        37.83529         1.82851
H         73.02394        39.83813         1.52382
H         72.92817        42.27497         1.21611
H         72.87520        44.21495         1.82252
H         72.99536        46.46138         0.88761
H         73.05606        48.10585        -0.27160
H         73.05015        50.51884        -0.77351
H         72.89950        52.50809         0.03851
H         72.92452        54.92515        -0.21722
H         73.02520        56.90112        -0.48719
H         72.93070        59.35307        -0.67954
H         72.97229        61.09241        -1.89908
H         73.06313        63.43863        -1.32099
H         72.98041        65.37073        -1.49810
H         73.16279        67.69152        -0.90341
H         73.04105        69.60889        -0.99403
H         72.81598        72.02876        -1.41946
H         70.65774        73.19715        -0.92631
