         638
 CSIRO Nanostructure Databank - Neutral Graphene Oxide Data Set
C         23.49915        69.91789        -2.70672
C         23.53661        71.32835        -2.84759
C         22.44578        72.05377        -3.39620
C         23.65705        74.14424        -3.14967
C         22.51690        73.43826        -3.53937
C         25.71491        65.64509        -1.62747
C         25.70374        67.06973        -1.64917
C         24.57980        67.78512        -2.08967
C         25.76303        69.92388        -1.74764
C         24.59287        69.20400        -2.18320
C         25.80889        71.34075        -1.87719
C         24.70521        72.04479        -2.43790
C         25.94265        74.16214        -2.19261
C         24.76978        73.46676        -2.59127
C         28.10078        61.35485        -1.26238
C         28.05961        62.76484        -1.10956
C         26.88992        63.49929        -1.34454
C         28.08410        65.64087        -0.96358
C         26.87074        64.92337        -1.30694
C         28.04946        67.07724        -0.85517
C         26.88171        67.78660        -1.22248
C         28.01816        69.94108        -0.74727
C         26.88320        69.21834        -1.22881
C         28.02245        71.35766        -0.82526
C         26.96388        72.05691        -1.43923
C         28.22228        74.19315        -1.25611
C         27.03633        73.49436        -1.61554
C         30.57344        57.09075        -1.12813
C         30.57715        58.49078        -1.10105
C         29.36172        59.23580        -1.30021
C         30.50471        61.29972        -0.50788
C         29.28481        60.60993        -1.07859
C         30.48331        62.79576        -0.69455
C         29.30624        63.48705        -0.84654
C         30.48835        65.64928        -0.42159
C         29.28378        64.94233        -0.77491
C         30.42025        67.07840        -0.16017
C         29.20781        67.78763        -0.41149
C         30.34854        69.90616         0.11421
C         29.18724        69.21789        -0.30226
C         30.34045        71.36565         0.27882
C         29.12052        72.13454        -0.22616
C         30.51167        74.19182        -0.32175
C         29.30024        73.55101        -0.61410
C         32.98950        52.79441        -0.83857
C         32.93701        54.20197        -0.65214
C         31.77015        54.93618        -0.94609
C         32.97489        57.04310        -0.55768
C         31.75658        56.34572        -0.87235
C         32.97985        58.48489        -0.55822
C         31.81189        59.18347        -0.84871
C         32.98908        61.37297        -0.37017
C         31.81803        60.68334        -1.03373
C         32.95889        62.75309        -0.20300
C         31.79519        63.52829        -0.76916
C         32.89309        65.60764         0.12128
C         31.69894        64.95226        -0.30025
C         32.87012        67.08397         0.15739
C         31.58349        67.78684         0.19393
C         32.72117        69.92187         0.81087
C         31.56773        69.21165         0.37165
C         32.77649        71.35808         0.77784
C         31.61222        72.08562         0.39928
C         32.89929        74.16442         0.32968
C         31.66388        73.49570         0.17639
C         35.33460        48.38251        -0.85619
C         34.87167        49.59578        -0.41284
C         34.06474        50.63162        -0.95077
C         35.27827        52.69140         0.03044
C         34.11703        52.00707        -0.53767
C         35.30163        54.11868         0.10931
C         34.12452        54.89707        -0.24297
C         35.47180        57.01387        -0.11113
C         34.14446        56.30437        -0.26220
C         35.34618        58.48825         0.20586
C         34.19013        59.20201        -0.15089
C         35.28800        61.32519         0.49689
C         34.14503        60.62523         0.00884
C         35.24229        62.74794         0.70918
C         34.06159        63.45586         0.37741
C         35.12410        65.57023         1.30892
C         34.02134        64.88854         0.51981
C         35.25688        67.03106         1.04046
C         34.11367        67.81719         0.60141
C         35.17042        69.89968         1.55566
C         33.87211        69.12058         1.35642
C         35.18173        71.38621         1.50164
C         33.95631        72.08633         1.09881
C         35.27167        74.17540         1.02979
C         34.05604        73.49047         0.81838
C         37.72636        44.21833        -1.41703
C         37.67464        45.65412        -0.95117
C         36.53474        46.20885        -0.51847
C         37.70310        48.42091        -0.08448
C         36.38403        47.62909        -0.03415
C         37.72841        49.81882         0.31877
C         36.54577        50.58879         0.58856
C         37.68824        52.71306         0.60546
C         36.48711        52.00955         0.40829
C         37.70294        54.12709         0.69119
C         36.46921        54.80578         0.53010
C         37.70059        56.95812         1.04535
C         36.37051        56.26716         0.89722
C         37.62531        58.41853         1.37275
C         36.47145        59.17623         0.72941
C         37.67109        61.28241         1.32554
C         36.45089        60.57164         0.80980
C         37.74551        62.76505         0.91194
C         36.43303        63.48379         1.08987
C         37.70225        65.60946         1.31197
C         36.44955        64.85090         1.25265
C         37.71270        67.02337         1.36317
C         36.41738        67.74879         1.66427
C         37.70704        69.93399         1.37090
C         36.42935        69.18134         1.11976
C         37.69001        71.36805         1.41597
C         36.48146        72.08291         1.45763
C         37.74353        74.23316         1.51635
C         36.43126        73.55056         1.76233
C         40.24325        40.05628        -0.30914
C         40.23042        41.43732        -0.51925
C         39.01254        42.15029        -0.80563
C         40.20793        44.28174        -0.83736
C         38.99363        43.51369        -0.97454
C         40.19309        45.68988        -0.86399
C         38.92357        46.46711        -1.17420
C         40.14320        48.54235        -0.47730
C         38.89077        47.83465        -0.51257
C         40.17098        49.91616        -0.00392
C         38.93821        50.53359         0.36473
C         40.16065        52.70598         0.81313
C         38.90215        51.91738         0.98448
C         40.17265        54.09087         0.92427
C         38.93691        54.82955         0.93997
C         40.14817        56.96625         1.38605
C         38.91539        56.26282         1.12209
C         40.13458        58.39196         1.34759
C         38.95055        59.11122         1.26534
C         40.17592        61.36311         1.14019
C         38.93330        60.56029         0.84438
C         40.20677        62.72883         1.26158
C         38.93002        63.46707         1.60826
C         40.16719        65.63569         1.21525
C         38.95013        64.93595         1.27973
C         40.16051        67.06522         1.16270
C         38.91685        67.75847         1.27771
C         40.14855        69.93304         1.24628
C         38.90855        69.21674         1.32935
C         40.15184        71.37138         1.29015
C         38.94648        72.07863         1.40642
C         40.19254        74.23004         1.37192
C         38.93417        73.53743         1.42559
C         42.71894        35.83402         0.68181
C         42.70208        37.33063         0.80467
C         41.46420        37.99153         0.27072
C         42.70393        40.09381        -0.05293
C         41.45681        39.35307        -0.02150
C         42.69765        41.48315        -0.31015
C         41.46228        42.17676        -0.49207
C         42.68421        44.31050        -0.68178
C         41.45465        43.58855        -0.65697
C         42.67277        45.73374        -0.77931
C         41.40508        46.41701        -0.77891
C         42.61821        48.57197        -0.83360
C         41.35703        47.84868        -0.72071
C         42.62959        50.08238        -0.33862
C         41.37714        50.60689         0.18228
C         42.62936        52.69920         0.42841
C         41.42593        51.91067         0.95558
C         42.65392        54.14502         0.87466
C         41.45361        54.79971         1.03473
C         42.73635        56.95949         1.48719
C         41.42260        56.21991         1.46353
C         42.72019        58.45643         1.52525
C         41.40655        59.16245         1.43316
C         42.70816        61.33249         0.99766
C         41.41572        60.58951         0.97165
C         42.68507        62.80056         1.15881
C         41.45434        63.48191         1.22204
C         42.64381        65.64483         1.12579
C         41.43230        64.91983         1.20555
C         42.65107        67.08940         1.02514
C         41.38715        67.79816         1.04155
C         42.57065        69.97225         0.72463
C         41.35151        69.21353         1.03414
C         42.58866        71.42737         0.93326
C         41.41198        72.09502         1.17745
C         42.65275        74.24533         1.28184
C         41.40701        73.55547         1.27477
C         45.18233        33.04391         0.89246
C         43.95488        33.70159         0.70210
C         45.14636        35.82778         0.21137
C         43.89104        35.11805         0.54576
C         45.17855        37.29937         0.24948
C         43.96784        38.00417         0.33065
C         45.18111        40.09046        -0.12469
C         43.94998        39.39791         0.08075
C         45.17258        41.49826        -0.35406
C         43.93655        42.20043        -0.42156
C         45.17012        44.29543        -0.81161
C         43.93221        43.60623        -0.61922
C         45.16811        45.74782        -0.92641
C         43.90509        46.44714        -0.83908
C         45.10750        48.59880        -0.72155
C         43.90694        47.87344        -0.81820
C         45.10169        49.93810        -0.22297
C         43.92129        50.59318         0.11408
C         45.15287        52.71852         0.28204
C         43.92093        51.95636         0.79189
C         45.12974        54.17764         0.66120
C         43.94445        54.83418         0.85182
C         45.23910        57.03388         0.99339
C         43.91132        56.34215         0.74757
C         45.24630        58.48951         1.11324
C         43.97358        59.20540         1.25165
C         45.22096        61.31350         1.47677
C         43.94462        60.57158         1.23818
C         45.15496        62.80176         1.25291
C         43.91621        63.50919         1.21846
C         45.11185        65.66518         1.25019
C         43.89994        64.94880         1.17105
C         45.14175        67.10648         1.12848
C         43.87152        67.78692         0.98577
C         45.13519        70.01554         0.89026
C         43.89006        69.23078         0.70210
C         45.13461        71.39061         0.90189
C         43.86271        72.16214         0.57809
C         45.10624        74.24491         1.18062
C         43.87865        73.58895         1.07085
C         46.40250        33.69924         0.85231
C         47.68985        35.89545         0.52318
C         46.49343        35.07430         0.37214
C         47.67623        37.26484         0.25456
C         46.41644        37.97733         0.09549
C         47.65353        40.11071        -0.18529
C         46.41824        39.38752        -0.06703
C         47.64877        41.48627        -0.46126
C         46.39918        42.19095        -0.57116
C         47.63208        44.19544        -1.42448
C         46.37691        43.57903        -0.85043
C         47.61496        45.72604        -1.40899
C         46.35827        46.44354        -1.08980
C         47.67328        48.54721        -0.56661
C         46.39861        47.95562        -1.17809
C         47.67110        49.80740        -0.02417
C         46.40075        50.52116         0.23454
C         47.72213        52.70836         0.93988
C         46.41659        51.95550         0.67083
C         47.69460        54.19603         0.63945
C         46.40331        54.92318         0.34934
C         47.69405        57.04419         0.72117
C         46.41684        56.35655         0.79559
C         47.66811        58.51858         0.42993
C         46.40123        59.19278         0.87398
C         47.65457        61.37655         1.07605
C         46.36504        60.68992         0.70083
C         47.63699        62.76464         1.26594
C         46.37475        63.47268         1.31286
C         47.70012        65.67350         1.29978
C         46.34361        64.92219         1.48242
C         47.65527        67.09373         0.81044
C         46.34702        67.80554         1.02509
C         47.66779        69.98250         1.12690
C         46.41722        69.26541         0.65411
C         47.62386        71.43200         1.15405
C         46.37927        72.12084         1.01330
C         47.57820        74.25411         1.18591
C         46.36090        73.55273         1.10165
C         48.88697        38.02091         0.24408
C         50.11855        40.13626        -0.03453
C         48.90411        39.40263         0.00587
C         50.14250        41.51820        -0.29273
C         48.89572        42.22259        -0.54329
C         50.14375        44.31405        -0.88417
C         48.90146        43.57841        -0.85275
C         50.16580        45.67775        -1.13155
C         48.91956        46.46376        -1.32122
C         50.14238        48.53032        -0.71185
C         48.93688        47.87800        -0.84732
C         50.21989        49.88847        -0.14326
C         48.93017        50.54136         0.26466
C         50.20995        52.74936         0.56281
C         48.88508        52.06120         0.14853
C         50.17007        54.22481         0.16514
C         48.87379        54.89619         0.58842
C         50.17374        57.08504         0.34833
C         48.87394        56.34760         0.60168
C         50.16010        58.51262         0.85492
C         48.92006        59.24679         0.84617
C         50.10536        61.36518         1.35831
C         48.86226        60.61785         1.10205
C         50.09210        62.79845         1.05626
C         48.89135        63.50986         1.13213
C         50.11718        65.71414         0.57451
C         48.87116        64.92325         0.94463
C         50.13665        67.12341         1.14823
C         48.84053        67.81033         1.48994
C         50.13124        69.96163         1.45272
C         48.86375        69.29857         1.28782
C         50.05563        71.42971         1.82778
C         48.82043        72.14835         1.33730
C         50.05449        74.28786         1.21319
C         48.82442        73.57733         1.27636
C         51.36328        42.23006        -0.36676
C         52.63105        44.30746        -0.70343
C         51.40332        43.60743        -0.65417
C         52.70355        45.69577        -0.96348
C         51.43994        46.39512        -1.27135
C         52.68865        48.61049        -0.82415
C         51.42063        47.91886        -1.13793
C         52.69274        49.98620        -0.57675
C         51.38622        50.74516        -0.62535
C         52.64641        52.76170         0.22120
C         51.46512        52.09723         0.03270
C         52.65217        54.18679         0.60859
C         51.43959        54.92489         0.57425
C         52.64559        56.98493         1.00701
C         51.43830        56.32159         0.71959
C         52.62549        58.41075         1.48626
C         51.35784        59.14306         1.11036
C         52.65127        61.27758         0.95101
C         51.39012        60.59051         1.34905
C         52.62021        62.74633         0.67076
C         51.30869        63.50342         0.50876
C         52.62390        65.67749         0.96299
C         51.33189        64.91372         1.10251
C         52.59270        67.04246         1.11300
C         51.33210        67.78735         1.23253
C         52.61624        69.93205         1.33828
C         51.34575        69.25018         1.42754
C         52.63330        71.42126         1.39532
C         51.35853        72.18517         1.56121
C         52.41129        74.20605         0.53135
C         51.30237        73.60938         1.10253
C         53.89092        46.43152        -0.87745
C         55.12748        48.56645        -0.65597
C         53.91803        47.86504        -0.82716
C         55.15170        49.96435        -0.42554
C         53.91019        50.68156        -0.35595
C         55.12062        52.72904         0.24144
C         53.91866        52.07624        -0.00431
C         55.14955        54.07801         0.92510
C         53.86431        54.86352         0.82344
C         55.12109        57.01216         1.13047
C         53.88260        56.27842         1.03103
C         55.14881        58.43387         1.17356
C         53.91537        59.17201         1.25757
C         55.11959        61.33340         1.07460
C         53.93348        60.57639         1.19829
C         55.07992        62.75373         0.89940
C         53.86409        63.50582         0.86968
C         55.10599        65.61868         0.93136
C         53.86683        64.91660         0.94856
C         55.11609        67.05399         0.98761
C         53.86860        67.76063         1.45761
C         55.02231        69.88112         0.73442
C         53.82043        69.23539         1.14285
C         54.90736        71.27207         0.26181
C         53.87049        72.17417         0.89628
C         54.82742        74.12063        -0.28482
C         53.53642        73.36883        -0.03495
C         56.36859        50.67534        -0.23797
C         57.60214        52.76817         0.25804
C         56.37716        52.04391         0.08380
C         57.63884        54.15963         0.44036
C         56.33361        54.92984         0.43763
C         57.63037        57.04640         0.75172
C         56.43018        56.25688         1.21744
C         57.60309        58.45630         0.75994
C         56.38237        59.14656         1.06317
C         57.56761        61.29425         0.56149
C         56.43714        60.63471         1.31418
C         57.44747        62.70589         0.21095
C         56.28161        63.47846         0.65608
C         57.53751        65.59652         0.43052
C         56.30639        64.88482         0.65741
C         57.60337        67.05053         0.82367
C         56.28333        67.77163         0.76556
C         57.45156        69.89682         0.15649
C         56.24792        69.19672         0.56831
C         57.41467        71.28725        -0.16824
C         56.11484        71.98198        -0.25160
C         57.27229        74.14383        -0.60238
C         56.05371        73.46899        -0.35855
C         58.82899        54.89514         0.45976
C         60.02884        57.05628         0.27126
C         58.84044        56.33239         0.49454
C         60.03143        58.47617         0.23277
C         58.80665        59.18145         0.45611
C         59.96927        61.32626        -0.04371
C         58.76535        60.60933         0.30337
C         59.97320        62.74106        -0.19750
C         58.69105        63.47684        -0.20651
C         59.91879        65.65573        -0.16512
C         58.69652        64.93943         0.03048
C         59.93675        67.05359        -0.07339
C         58.75807        67.78719         0.21511
C         59.88787        69.91974        -0.33637
C         58.69716        69.19565         0.04767
C         59.84290        71.33453        -0.49529
C         58.58469        72.01681        -0.41489
C         59.70002        74.17195        -0.84159
C         58.52778        73.46277        -0.64111
C         61.21611        59.20476        -0.04157
C         62.40333        61.34519        -0.42144
C         61.21342        60.61756        -0.16384
C         62.40184        62.75333        -0.56168
C         61.15377        63.44980        -0.42489
C         62.38755        65.63582        -0.73712
C         61.07085        64.90977        -0.79756
C         62.39024        67.04076        -0.74657
C         61.24157        67.79897        -0.12493
C         62.26136        69.94075        -0.94407
C         61.11340        69.23756        -0.55891
C         62.23734        71.35863        -0.97986
C         61.04693        72.04822        -0.74149
C         62.05389        74.10402        -1.70445
C         61.06255        73.56169        -0.69972
C         63.58321        63.48460        -0.87204
C         64.78333        65.63425        -1.23523
C         63.59456        64.90667        -0.96299
C         64.76097        67.03364        -1.36693
C         63.55105        67.74207        -1.10609
C         64.78208        69.93298        -1.23805
C         63.46205        69.20088        -1.49783
C         64.66943        71.36270        -1.71695
C         63.50753        72.16377        -1.17665
C         64.26589        73.99397        -2.76372
C         63.22971        73.44437        -1.94259
C         65.92083        67.77532        -1.80283
C         66.97602        69.86502        -2.51268
C         65.92802        69.16057        -1.87102
C         66.84995        71.22056        -2.85740
C         65.63574        71.95176        -2.48876
C         66.51417        73.90929        -3.74653
C         65.46383        73.31861        -2.98828
C         67.85579        71.88687        -3.59234
C         67.68452        73.21001        -4.01958
O         35.15596        70.60106         2.81826
O         47.14001        65.41273         2.60655
O         51.44153        47.27400        -2.45018
O         33.78330        67.75815        -0.81844
O         57.76353        63.00244        -1.21643
O         52.25578        71.97809         2.71990
O         42.06513        58.99523         2.73367
O         52.68835        61.75507        -0.44533
O         43.19644        69.57238        -0.57674
O         42.09113        60.85511        -0.30143
O         45.82480        35.27770        -0.93859
O         48.26911        46.26850        -2.64365
O         42.26706        56.36009         2.70704
O         42.57450        49.69559        -1.74238
O         50.82867        61.02722         2.63305
O         46.26514        50.90231         1.68009
O         35.36335        49.98437         0.90537
O         49.84622        50.00437         1.27562
O         29.30067        71.87502         1.19920
O         55.13868        71.35263        -1.18875
O         46.15435        60.93767        -0.71536
H         46.81531        60.39435        -1.20552
O         36.16319        73.68044         3.22161
H         35.58004        72.93408         3.48160
O         38.87943        60.46075        -0.63162
H         39.79701        60.31451        -0.95253
O         37.26544        58.47831         2.86962
H         38.00910        58.04251         3.34445
O         56.69658        56.01431         2.62589
H         56.14503        55.24306         2.90927
O         34.68794        65.49700         2.74162
H         33.90085        66.08009         2.83459
O         60.74332        64.90370        -2.24482
H         61.36107        64.27901        -2.68190
O         47.94310        52.63489         2.35858
H         47.55238        51.78791         2.67616
O         46.40678        55.03197        -1.16419
H         47.34134        54.93632        -1.46013
O         50.23088        57.19414        -1.12750
H         49.45396        57.74841        -1.39335
O         38.97595        46.72002        -2.62599
H         39.79090        47.23770        -2.80559
O         50.16051        54.33452        -1.29084
H         50.26569        55.29796        -1.50120
O         50.37162        52.71216         1.99455
H         50.28459        51.77286         2.27527
O         38.82322        63.46974         3.05316
H         38.48758        62.58547         3.34097
O         51.04880        51.01369        -2.03329
H         51.80182        51.49428        -2.43887
O         36.27205        67.80898         3.10802
H         35.97850        66.91420         3.40284
O         36.15037        56.91790        -1.39698
H         35.62560        57.41901        -2.05606
O         46.54270        69.30775        -0.83933
H         45.65863        69.09105        -1.21089
O         38.76996        51.64912         2.45380
H         38.63647        52.51834         2.89184
O         54.55829        72.72042         2.04709
H         53.87693        72.85754         2.74846
O         35.98341        47.48764         1.34588
H         35.64621        48.35900         1.65757
O         30.50344        61.05707         0.93245
H         29.66073        61.40290         1.29439
O         51.17816        64.71386         2.52817
H         51.19150        65.59005         2.96885
O         56.05741        55.30376        -0.93413
H         56.12873        54.49952        -1.48981
O         55.34884        53.76840         2.34487
H         54.55791        53.27941         2.65695
O         42.44999        52.72230        -1.00599
H         43.34565        52.77165        -1.42676
O         63.28702        69.20626        -2.94657
H         62.48185        68.68935        -3.15964
O         47.61612        43.78202        -2.82504
H         48.10596        44.47609        -3.32594
O         33.46537        68.62972         2.67495
H         33.76932        69.30690         3.32559
O         50.23592        65.96572        -0.83862
H         50.26080        65.10042        -1.30888
O         36.31440        69.10702        -0.32939
H         37.03347        68.53261        -0.66815
O         42.66442        37.58213         2.27792
H         42.58007        38.55271         2.39887
O         37.62120        61.19017         2.77220
H         37.41895        60.24381         3.00748
O         63.92082        72.59526         0.17892
H         64.66379        73.22576         0.06407
O         46.49645        48.30138        -2.59929
H         47.19026        47.71159        -2.98924
O         43.62254        56.61562        -0.66567
H         44.29909        56.14379        -1.20076
O         64.97092        69.92453         0.20127
H         65.71457        70.52405         0.41709
O         47.87127        67.01702        -0.61324
H         47.67311        67.90521        -1.00280
O         52.50235        58.29280         2.95596
H         52.25994        59.17807         3.30794
O         32.09166        63.63381        -2.23242
H         31.41165        64.22358        -2.62491
O         53.00853        72.88047        -1.29993
H         53.72569        72.34412        -1.72299
O         53.94376        67.68691         2.93452
H         54.85093        67.95659         3.19581
O         35.69667        56.29874         2.19279
H         35.97742        57.12907         2.65217
O         37.98880        62.90499        -0.51124
H         38.22722        62.02679        -0.89915
O         31.89777        60.89991        -2.46455
H         32.05305        61.86846        -2.61450
O         43.86027        72.25420        -0.88651
H         43.68989        71.33809        -1.21698
O         43.96299        51.89920         2.21907
H         44.71760        51.32713         2.48729
O         49.85825        71.40348         3.28326
H         50.76195        71.42526         3.68111
O         56.73880        60.81796         2.76417
H         57.32361        60.08059         3.04203
O         61.62803        67.89405         1.30215
H         62.44492        68.43770         1.34903
O         57.91756        67.02889         2.28696
H         58.87771        66.83997         2.37405
O         48.59065        52.32375        -1.23885
H         49.36674        52.02948        -1.77782
O         61.54757        73.95654         0.63072
H         62.41503        73.49225         0.75661
O         37.68748        44.20761        -2.85833
H         38.21753        44.97864        -3.16831
O         47.67202        58.59323        -1.07172
H         46.89531        58.07490        -1.38017
O         45.55023        61.12411         2.88468
H         44.81343        61.47340         3.42812
O         45.11468        52.68328        -1.17831
H         45.65175        53.45038        -1.50819
O         41.53839        51.59691         2.36448
H         40.63518        51.35258         2.68191
O         48.64490        67.63379         2.92705
H         49.23396        68.26370         3.39392
O         51.08153        63.57813        -0.92684
H         51.48948        62.76664        -1.31766
H         23.69717        75.23610        -3.27235
H         25.99078        75.25242        -2.33309
H         28.29858        75.26551        -1.49032
H         30.61807        75.25984        -0.56426
H         32.96074        75.23933         0.10353
H         35.34601        75.22719         0.71245
H         37.76461        75.33360         1.54185
H         40.18808        75.32951         1.42009
H         42.65493        75.32565         1.49557
H         45.12064        75.32196         1.41014
H         47.56609        75.35405         1.19948
H         50.02521        75.37031         1.01559
H         52.33642        75.25653         0.20692
H         54.79188        75.21114        -0.43562
H         57.26411        75.23668        -0.73162
H         59.64629        75.26281        -0.98339
H         61.86727        75.08392        -2.17097
H         64.10885        74.98442        -3.21714
H         66.38683        74.93631        -4.11785
H         22.60242        69.36923        -3.03186
H         21.54269        71.51157        -3.71119
H         21.66367        73.98314        -3.96761
H         24.80124        65.10237        -1.91274
H         23.68309        67.23633        -2.41426
H         27.18895        60.83418        -1.59438
H         25.96222        62.96531        -1.60018
H         29.63690        56.55162        -1.33530
H         28.45609        58.68528        -1.60029
H         32.09827        52.29627        -1.25098
H         30.85833        54.40197        -1.25192
H         35.12387        48.05613        -1.88356
H         33.25660        50.35665        -1.64610
H         36.82994        43.65446        -1.05121
H         35.63789        45.57806        -0.40811
H         39.29769        39.49438        -0.33193
H         38.07953        41.57503        -0.90545
H         41.77813        35.29641         0.87869
H         40.51400        37.43708         0.30205
H         45.16365        31.97962         1.16945
H         43.01847        33.14223         0.83911
H         47.31728        33.18934         1.18703
H         48.62942        35.41171         0.83014
H         49.83960        37.49168         0.39714
H         51.06837        39.60442         0.12674
H         52.30765        41.68895        -0.20542
H         53.56051        43.75804        -0.49057
H         54.83624        45.89237        -0.71394
H         56.07757        48.01215        -0.67534
H         57.32302        50.13560        -0.32650
H         58.55070        52.21443         0.18581
H         59.78994        54.36679         0.36337
H         60.96767        56.51256         0.08994
H         62.16066        58.65731        -0.17903
H         63.35173        60.79751        -0.52535
H         64.52541        62.93535        -1.01381
H         65.72354        65.08764        -1.39982
H         66.79139        67.21213        -2.17432
H         67.85751        69.30526        -2.86283
H         68.77742        71.34470        -3.84829
H         68.48220        73.69521        -4.59971
