         349
 CSIRO Nanostructure Databank - Neutral Graphene Oxide Data Set
C          2.24398         4.09780        -3.79976
C          1.14974         4.85710        -4.18685
C          2.10242         6.85800        -3.14416
C          1.07256         6.21830        -3.86557
C          2.04886         8.26470        -2.79186
C          0.87954         9.05625        -3.09787
C          1.73423        10.99114        -1.85575
C          0.71485        10.32631        -2.61956
C          1.52299        12.23288        -1.27302
C          0.29014        12.97248        -1.36434
C          1.27532        14.96407        -0.27699
C          0.16691        14.24018        -0.87206
C          1.20448        16.38838        -0.10868
C          0.05305        17.17817        -0.34020
C          1.19682        19.34349         0.09369
C          0.04152        18.55980        -0.21275
C          1.16420        20.72321         0.31508
C         -0.00760        21.54065         0.10454
C          1.12990        23.63674         0.91709
C         -0.02306        22.88386         0.29832
C          1.21816        25.10534         0.50055
C          0.00875        25.95673         0.61834
C          1.31394        28.06570         0.72039
C          0.05304        27.29543         0.78102
C          1.39865        29.44199         1.25055
C          4.42556         3.93729        -2.66628
C          3.30793         4.69609        -3.07216
C          4.30206         6.70296        -2.01708
C          3.23759         6.09252        -2.74498
C          4.24957         8.09849        -1.69820
C          3.10835         8.86017        -2.09640
C          4.07044        10.80827        -0.82971
C          3.11774        10.36234        -1.90635
C          3.82852        12.08887        -0.13579
C          2.55166        12.82556        -0.38178
C          3.57462        14.84689         0.70886
C          2.47397        14.26052        -0.04663
C          3.56437        16.40926         0.82060
C          2.47056        17.09814         0.10452
C          3.67151        19.26767         0.76661
C          2.50520        18.64772         0.15583
C          3.59181        20.70131         1.19812
C          2.45359        21.44050         0.51848
C          3.71711        23.57851         1.11717
C          2.45859        22.92934         0.66124
C          3.67800        25.06188         1.40241
C          2.55496        25.77580         0.65146
C          3.85555        27.93084         1.09669
C          2.60512        27.27573         0.66469
C          3.86528        29.36950         1.26895
C          2.59522        30.05778         1.42551
C          6.60328         3.76998        -1.53569
C          5.48504         4.52755        -1.94346
C          6.48838         6.53308        -0.88948
C          5.42632         5.92950        -1.61716
C          6.42445         7.92043        -0.54019
C          5.31635         8.69476        -0.95900
C          6.23996        10.63815         0.32576
C          5.19826        10.07576        -0.52465
C          6.14388        12.04429         0.69296
C          5.00133        12.78317         0.43949
C          5.99270        14.85712         1.32591
C          4.89687        14.17512         0.83236
C          5.95257        16.32989         1.55319
C          4.80581        17.11545         1.07724
C          6.10531        19.24743         1.23321
C          4.84837        18.52888         1.00993
C          6.11653        20.71300         1.20571
C          4.91890        21.42270         1.12695
C          6.18240        23.57877         1.50175
C          4.88856        22.86631         1.18980
C          6.18495        25.03055         1.10686
C          5.00432        25.75339         1.16887
C          6.34018        27.86760         1.42711
C          5.01751        27.18763         1.18071
C          6.31278        29.34358         1.11262
C          5.07676        30.04784         1.28547
C          8.80769         3.60677        -0.46493
C          7.66829         4.36436        -0.82557
C          8.69499         6.36963         0.21764
C          7.61447         5.76075        -0.49144
C          8.62268         7.75598         0.61201
C          7.47119         8.49924         0.26373
C          8.30518        10.33120         1.75324
C          7.32651         9.85951         0.70598
C          8.14361        11.79687         2.01340
C          7.22189        12.63805         1.46544
C          8.56257        14.89379         1.75737
C          7.23300        14.11302         1.71088
C          8.46172        16.27289         1.09262
C          7.27332        17.08501         1.57429
C          8.60187        19.23355         1.56327
C          7.28076        18.54288         1.32879
C          8.60953        20.67329         1.09353
C          7.39363        21.39657         1.16080
C          8.57763        23.51550         0.72754
C          7.41536        22.83174         1.05361
C          8.58410        24.93607         0.48275
C          7.41686        25.67985         0.75499
C          8.55336        27.77678         0.23516
C          7.45692        27.12272         0.73458
C          8.63378        29.21842         0.30693
C          7.48111        29.97044         0.73804
C         11.10581         3.45631         0.38934
C          9.89063         4.20641         0.19087
C         10.94383         6.20664         1.26404
C          9.82318         5.58552         0.54563
C         10.96595         7.67848         1.40893
C          9.79387         8.40016         1.21702
C         10.92030        10.55995         1.62589
C          9.74247         9.83733         1.49365
C         11.01866        12.01370         1.68438
C         10.03826        12.87271         2.15985
C         11.00472        14.87021         1.16450
C          9.90602        14.24184         1.71462
C         10.94136        16.23170         0.49189
C          9.75719        17.05712         0.99050
C         11.05912        19.17508         0.93322
C          9.78364        18.41241         1.07655
C         11.02069        20.60894         0.55646
C          9.81882        21.32278         0.76268
C         10.97095        23.40925        -0.10154
C          9.91085        22.82452         0.79969
C         10.85790        24.80625        -0.48861
C          9.73884        25.56663        -0.12170
C         10.77657        27.75935        -1.09088
C          9.49813        26.98686        -0.64536
C         10.94302        29.20526        -0.64531
C          9.79940        29.85708        -0.07010
C         13.50780         3.32010         0.83401
C         12.25672         4.03127         0.87100
C         13.51406         6.12450         1.65780
C         12.21336         5.40437         1.43084
C         13.54125         7.60994         1.52336
C         12.24858         8.33641         1.76042
C         13.47854        10.52781         1.24753
C         12.23762         9.85332         1.71509
C         13.45279        11.85390         0.93267
C         12.29725        12.66083         1.38148
C         13.49547        14.81351         0.61541
C         12.29880        14.17384         1.19268
C         13.45312        16.23388         0.49862
C         12.26800        16.94173         0.59082
C         13.47059        19.12523         0.11489
C         12.31865        18.41150         0.70235
C         13.34991        20.46547        -0.26647
C         12.16209        21.24331        -0.00960
C         13.14770        23.24197        -1.31224
C         12.08656        22.64427        -0.40045
C         13.20595        24.76509        -1.26669
C         12.01455        25.43781        -1.12729
C         13.23874        27.51184        -1.82741
C         11.95637        26.87867        -1.49657
C         13.32598        29.65749        -1.30040
C         12.10029        29.97803        -0.61778
C         15.95541         3.19607         0.95048
C         14.71387         3.91760         1.09823
C         16.12000         6.06893         1.43207
C         14.78163         5.34422         1.53861
C         15.99014         7.55226         1.08745
C         14.72795         8.26591         1.30681
C         15.80303        10.25963         0.22724
C         14.81286         9.79046         1.32317
C         15.85247        11.78023         0.04749
C         14.61726        12.57775         0.35207
C         15.88482        14.70142         0.07590
C         14.69084        14.06878         0.43298
C         15.98601        16.16467         0.18480
C         14.73294        16.96567         0.43334
C         15.89377        19.02541        -0.26422
C         14.71367        18.39673         0.04278
C         15.85409        20.41994        -0.72593
C         14.53136        21.11034        -0.87357
C         15.78013        23.39770        -0.96728
C         14.52421        22.59683        -1.15158
C         15.75720        24.87921        -1.07899
C         14.50592        25.44632        -1.72099
C         15.71389        27.70843        -1.64936
C         14.48206        26.95891        -1.62556
C         15.68827        29.21916        -1.93322
C         14.63474        29.92781        -1.06874
C         18.40055         3.18486         0.64432
C         17.13037         3.86319         0.72223
C         18.39928         6.02177         0.44978
C         17.05901         5.34804         0.44478
C         18.38673         7.50833         0.23392
C         17.13754         8.22003         0.70945
C         18.33711        10.37255         0.48244
C         17.16045         9.65675         0.50629
C         18.33837        11.81917         0.27948
C         17.15880        12.48650         0.06091
C         18.40860        14.72317        -0.27445
C         17.11727        13.94684        -0.22416
C         18.40861        16.20423        -0.19284
C         17.22885        16.87163        -0.21443
C         18.39703        19.09460         0.09337
C         17.20072        18.34297        -0.54368
C         18.37111        20.55823        -0.28653
C         17.05719        21.23583        -0.35306
C         18.24607        23.52046        -0.26646
C         16.97841        22.72135        -0.36348
C         18.18950        24.99806        -0.52033
C         16.90862        25.62388        -0.99849
C         18.18198        27.74113        -1.45346
C         16.92109        27.04506        -1.36659
C         18.20003        29.17149        -1.67773
C         17.01820        29.88079        -1.76577
C         19.56788         3.87600         0.51502
C         20.84990         6.04564         0.39862
C         19.57877         5.32572         0.44633
C         20.90573         7.38904         0.51963
C         19.66169         8.17566         0.71512
C         20.88602        10.44296         0.56970
C         19.63373         9.68283         0.76743
C         20.88725        11.76184         0.32705
C         19.64072        12.55876         0.36388
C         20.89230        14.76622        -0.42722
C         19.69217        14.03187         0.07477
C         20.88620        16.10710        -0.50996
C         19.73970        16.90682         0.06731
C         20.81156        19.15324        -0.52841
C         19.69520        18.39580        -0.23830
C         20.77129        20.56733        -0.57492
C         19.54663        21.27240        -0.47543
C         20.32183        23.40853        -1.61813
C         19.60643        22.80152        -0.42236
C         20.26840        24.72819        -1.84579
C         19.54439        25.64697        -0.86627
C         20.62341        27.77513        -1.50165
C         19.42601        27.07638        -1.34151
C         20.63985        29.16659        -1.74278
C         19.45515        29.86142        -1.79269
O          2.12469        25.26254        -0.63489
O          2.70957        22.29285        -0.64180
O          7.81239        14.62233         2.95532
O         15.61175        16.65219         1.55655
O          6.59461        16.75846         2.81426
O          2.87979        17.88126        -1.05071
O         15.41149        22.85095        -2.29911
O         19.69957        13.56432         1.45782
O         19.58828         8.86213         1.99497
O         16.70060        22.00787         0.88613
O         11.97125        18.90914         2.06788
O         10.98176        27.38482        -2.48792
O         15.18427        20.45415        -2.03000
O         14.94776        12.17833        -1.04513
O         17.77890        14.26891        -1.52142
O          2.71163        11.98557         0.85514
O          9.03085        12.32132         2.96200
O         12.66726        13.56913         2.48882
O         18.16993        24.46619         0.84724
O          3.13461        15.55357         1.91482
O         13.07313        28.77287        -2.38244
O         12.32602         9.13134         2.99711
O         14.18932         5.59113         2.86188
O          2.05608        27.89180        -0.53824
O         11.28293         5.52895         2.54843
O         14.62182        25.21621        -3.16636
H         15.05220        24.33272        -3.28295
O          7.92668         9.65132         2.99397
H          8.44944        10.05960         3.71794
O          8.11066        15.93821        -0.31174
H          7.95051        16.78059        -0.79104
O          3.36788        25.22644         2.81712
H          4.08675        24.79035         3.32575
O          8.75197        19.33079         3.01743
H          8.57656        18.44560         3.40374
O          3.18622        20.70710         2.61909
H          3.90275        20.27977         3.13631
O         18.37929         7.69603        -1.22348
H         17.53253         7.31234        -1.54806
O          0.91696        23.63526         2.35484
H          0.96953        22.71029         2.67606
O          6.25830        23.60092         2.97908
H          7.10814        24.02720         3.22280
O         20.39267        23.08694         0.76897
H         19.77766        23.06512         1.53462
O         10.73205        15.99424        -0.93961
H          9.80839        15.65570        -1.03888
O         17.42386        18.46828        -1.97760
H         16.56610        18.37954        -2.44445
O         16.76327         5.98651         2.71879
H         16.05679         6.08472         3.39793
O          6.59220        27.76648         2.87307
H          7.39560        28.29425         3.06745
O         16.46823         5.53063        -0.88263
H         16.97349         4.97189        -1.51057
O          3.70686        10.89967        -3.16197
H          3.16255        10.55363        -3.90200
O         20.35970        25.74769         0.31659
H         20.50689        24.83003         0.66278
O          8.68606        26.76881        -1.83882
H          9.31249        26.65703        -2.59396
O         10.38932        23.12510         2.18128
H         10.00826        22.44446         2.77812
O         15.37551        10.17009         2.59952
H         14.75331         9.88432         3.30317
O         12.70044        22.90775        -2.65810
H         13.39120        23.21672        -3.28406
O         15.39059        29.40588        -3.34540
H         14.46527        29.09762        -3.49571
O         18.17168        19.00040         1.54035
H         18.70327        19.69867         1.97771
O         19.88604        16.82228         1.51917
H         19.16158        17.37070         1.90939
O         15.34768         9.66981        -1.01399
H         14.99709        10.40732        -1.56888
H          2.29834         3.02897        -4.05073
H          0.33014         4.38990        -4.75053
H          0.18796         6.78069        -4.19161
H          0.05497         8.60058        -3.66125
H         -0.24628        10.83091        -2.79010
H         -0.57642        12.51784        -1.86402
H         -0.79554        14.75668        -0.98791
H         -0.89994        16.68130        -0.56994
H         -0.91968        19.07575        -0.34306
H         -0.92213        21.05432        -0.26577
H         -0.95118        23.43838         0.09538
H         -0.96272        25.44588         0.70036
H         -0.87855        27.85336         0.96309
H          0.46253        29.98049         1.46291
H          4.47192         2.86661        -2.91460
H          2.62500        31.10929         1.74884
H          6.65220         2.69976        -1.78500
H          5.08635        31.14860         1.29722
H          8.85840         2.54306        -0.73940
H          7.50519        31.06489         0.62125
H         11.13316         2.41728         0.02777
H          9.87025        30.94478         0.08252
H         13.49028         2.27423         0.49101
H         12.04617        30.93881        -0.08185
H         15.93851         2.09642         1.00435
H         14.94927        30.57814        -0.24144
H         18.40948         2.08841         0.73501
H         17.05300        30.97170        -1.90686
H         20.52900         3.34285         0.48512
H         21.77371         5.45594         0.30395
H         21.87965         7.89738         0.56178
H         21.83914         9.89877         0.62912
H         21.83818        12.30145         0.21133
H         21.76123        14.19301        -0.78659
H         21.76197        16.63202        -0.91999
H         21.78275        18.66129        -0.68771
H         21.70604        21.12854        -0.70495
H         20.88503        22.74273        -2.28981
H         20.80459        25.16820        -2.70094
H         21.57283        27.23310        -1.39295
H         21.59979        29.68916        -1.85410
H         19.44428        30.94853        -1.95553
