         576
 CSIRO Nanostructure Databank - Neutral Graphene Oxide Data Set
C          6.01625        18.97998        -1.31665
C          5.97200        20.34909        -1.23837
C          4.85355        21.12744        -1.72145
C          5.96687        23.28853        -1.29478
C          4.84472        22.49462        -1.74180
C          6.06688        24.64131        -1.51349
C          8.06072        14.49175        -0.31464
C          8.18685        16.00271        -0.26058
C          7.07705        16.84059        -0.75406
C          8.35811        18.94757        -0.44755
C          7.14414        18.21667        -0.81556
C          8.36287        20.36310        -0.37157
C          7.07346        21.07439        -0.56047
C          8.31801        23.32236        -0.29087
C          7.04083        22.58222        -0.55611
C          8.42217        24.70478        -0.77791
C          7.28653        25.38298        -1.23139
C          8.49803        27.57989        -1.12774
C          7.34853        26.78967        -1.42195
C          8.28998        28.99181        -0.99283
C         10.85170        10.31838        -0.82120
C         10.72748        11.77213        -0.91703
C          9.41771        12.32526        -0.69428
C         10.88098        14.83861        -0.82458
C          9.03197        13.68785        -0.88022
C         10.81975        16.08379        -0.23134
C          9.50702        16.76046        -0.08366
C         10.75129        18.93171         0.10467
C          9.55542        18.24253        -0.19081
C         10.77369        20.34585         0.12954
C          9.56062        21.05619        -0.10309
C         10.87739        23.24878        -0.06464
C          9.57522        22.53686        -0.01988
C         10.90096        24.63533        -0.23570
C          9.76011        25.35897        -0.93376
C         10.90790        27.51041        -0.36568
C          9.72864        26.87590        -0.80220
C         11.10293        28.90241        -0.55603
C          9.32835        29.96706        -0.97983
C         10.68363        31.89482         0.14384
C          9.42311        31.22220        -0.40850
C         10.93978        33.31369        -0.36353
C         13.39423         6.10707        -0.73965
C         13.33512         7.54362        -0.92843
C         12.12646         8.21061        -0.85456
C         13.23330        10.36550        -1.56883
C         12.02747         9.63350        -1.01521
C         13.28128        11.78904        -0.95228
C         11.93149        12.50632        -1.03666
C         13.28833        14.71542        -0.48507
C         11.98468        13.93179        -0.64561
C         13.25405        16.17042        -0.25734
C         12.03838        16.76657         0.06423
C         13.26792        18.91670         0.50597
C         11.95779        18.16635         0.61744
C         13.25540        20.34625         0.68022
C         12.00605        21.07966         0.42154
C         13.30303        23.19236         0.51835
C         12.03245        22.47039         0.30329
C         13.29939        24.67958         0.49059
C         12.05252        25.40365         0.16309
C         13.08525        27.58453         0.95874
C         12.02878        26.78268         0.21012
C         13.25580        29.00727         0.47173
C         12.08856        29.70873         0.09740
C         13.21291        31.81523         0.42882
C         12.01545        31.12647         0.13308
C         13.10140        33.27586         0.83376
C         12.07294        33.99160        -0.01159
C         13.39501        36.09753         0.18361
C         12.28903        35.39877        -0.25909
C         13.50081        37.52925        -0.05463
C         15.83295         6.13655        -0.47166
C         14.56019         5.43579        -0.53617
C         15.86666         7.44687        -1.24416
C         14.58667         8.28090        -1.10909
C         15.81211        10.42106        -1.46586
C         14.55701         9.62988        -1.33509
C         15.77882        11.92596        -1.49746
C         14.41285        12.64652        -1.59939
C         15.74154        14.90688        -0.95697
C         14.48551        14.11148        -1.11334
C         15.72777        16.23726        -0.31693
C         14.50695        16.87011        -0.08952
C         15.76269        18.85302         0.72438
C         14.47108        18.23569         0.36675
C         15.73298        20.31534         1.17253
C         14.44796        21.00823         0.97536
C         15.71760        23.21244         1.46249
C         14.42637        22.46137         1.18450
C         15.69267        24.66737         1.16351
C         14.35566        25.36304         1.32824
C         15.69977        27.57518         0.82842
C         14.42054        26.87072         1.11952
C         15.72516        28.99341         0.42411
C         14.48767        29.70912         0.45107
C         15.74475        31.87852         0.21143
C         14.44722        31.13070         0.39741
C         15.74136        33.21567         0.91552
C         14.44524        33.98339         0.99450
C         15.72073        36.11823         1.08510
C         14.53503        35.44600         0.81625
C         15.73729        37.66251         1.10536
C         14.56348        38.24499         0.35671
C         18.06334         6.43626         0.63948
C         16.89879         5.58357         0.16969
C         18.35470         7.52854        -0.41158
C         17.14056         8.25905        -0.98761
C         18.18326        10.57310        -0.39682
C         17.11168         9.74571        -1.10162
C         18.29906        11.97859        -0.91818
C         16.98361        12.66780        -0.95713
C         18.25783        14.90945        -0.83953
C         16.99898        14.14196        -0.79567
C         18.22926        16.25847        -0.63697
C         16.99052        16.93397        -0.22676
C         18.25062        19.04456         0.16034
C         17.01267        18.23635         0.23838
C         18.26120        20.46211         0.66518
C         16.99575        21.10917         1.13843
C         18.28535        23.22168         1.06949
C         16.99045        22.45926         1.29808
C         18.09348        24.70453         1.34278
C         16.86733        25.34517         0.95892
C         18.20148        27.54825         0.73677
C         16.91981        26.77582         0.46418
C         18.23091        28.91470         0.43109
C         16.98539        29.66675         0.35040
C         18.25814        31.75278         0.76379
C         17.00005        31.06726         0.42307
C         18.23943        33.23552         0.99973
C         16.98321        33.99158         0.94841
C         18.18760        35.94701         1.70818
C         16.94321        35.34594         1.29402
C         18.22109        38.02842         1.20512
C         17.02884        38.27442         0.57228
C         20.72890         6.33395         0.77082
C         19.35774         5.74803         1.03909
C         20.63179         7.85976         0.72152
C         19.42871         8.47476         0.11453
C         20.72021        10.55386        -0.42910
C         19.49849         9.86527        -0.36532
C         20.73874        11.97945        -0.73928
C         19.48920        12.67851        -0.91235
C         20.73209        14.92599        -0.83361
C         19.49757        14.16579        -1.30442
C         20.74084        16.28231        -0.78626
C         19.46974        17.09251        -0.90082
C         20.74674        19.10725         0.00285
C         19.53838        18.37403        -0.08495
C         20.73421        20.49390         0.51425
C         19.57686        21.09561         0.94941
C         20.82397        23.19832         1.61977
C         19.49873        22.44593         1.68758
C         20.97705        24.47232         2.05522
C         19.08742        25.57100         1.78627
C         20.73476        27.28556         0.86491
C         19.31690        26.88117         1.29828
C         20.81038        28.81885         0.66897
C         19.55313        29.59756         0.35508
C         20.76399        31.73776         1.02080
C         19.57119        31.13510         0.28680
C         20.78775        33.22556         1.11415
C         19.51685        34.00210         0.98244
C         20.66126        36.15243         1.53419
C         19.45969        35.39393         1.50776
C         20.68886        37.54165         1.14478
C         19.56434        38.34096         0.83574
C         23.07679         6.59869         1.68090
C         21.90345         5.88034         1.63008
C         23.11846         8.04708         1.31507
C         21.87307         8.69606         0.77678
C         23.26037        10.51140        -0.39414
C         21.92573         9.92136        -0.03480
C         23.21352        12.01331        -0.61577
C         21.97344        12.67446        -0.71566
C         23.28414        14.87386        -0.55900
C         21.95917        14.14738        -0.57226
C         23.28055        16.34247        -0.62235
C         22.00937        17.09255        -0.93659
C         23.27208        19.17276        -0.26464
C         21.97524        18.46433        -0.30040
C         23.30681        20.63498         0.08670
C         21.97849        21.36837         0.29368
C         23.38405        23.13123         1.60404
C         22.07861        22.45662         1.33080
C         23.40702        24.59869         1.96183
C         22.12419        25.33766         1.80216
C         23.27167        27.43574         1.17624
C         22.01018        26.66740         1.48173
C         23.23275        28.92507         1.27820
C         21.99980        29.56339         1.17404
C         23.01894        31.66882         2.00738
C         21.86753        30.99429         1.39524
C         23.00630        33.03549         2.18038
C         21.77832        33.89786         2.05135
C         23.03848        35.84639         0.75763
C         22.00773        35.44615         1.82612
C         23.09180        37.32629         0.50485
C         21.96820        38.09522         0.77565
C         25.54462         6.69320         1.90794
C         24.33196         6.04167         2.12664
C         25.57446         8.00439         1.25244
C         24.40473         8.69196         1.00317
C         25.67010        10.69303         0.11323
C         24.35060        10.17498         0.64881
C         25.63665        11.83905        -0.83178
C         24.46365        12.68489        -0.82959
C         25.69380        14.91370        -0.93588
C         24.51087        14.12432        -0.88277
C         25.72263        16.27027        -0.48942
C         24.49117        17.01128        -0.41613
C         25.76870        19.06736         0.06668
C         24.53879        18.41809        -0.18039
C         25.79910        20.47073         0.41952
C         24.59444        21.21423         0.56992
C         25.88281        23.18637         1.26504
C         24.63463        22.52644         1.07223
C         25.93305        24.60868         1.56328
C         24.67904        25.34576         1.83386
C         25.83373        27.58319         1.55215
C         24.60497        26.77993         1.40020
C         25.79625        28.98609         1.58649
C         24.44510        29.62230         1.67894
C         26.58912        32.28557         1.76777
C         24.20508        30.85751         2.30449
C         25.94111        33.31709         0.89351
C         24.83113        34.00774         1.25074
C         25.32699        35.79421        -0.53513
C         24.29768        35.10392         0.41072
C         25.47744        37.27319        -0.23933
C         24.31672        37.96140         0.16504
C         28.01236         6.77853         2.09081
C         26.79459         6.17020         2.38604
C         28.03376         7.90557         1.17569
C         26.85776         8.54911         0.86753
C         28.03367        10.13231        -0.77923
C         26.91017         9.87831         0.21649
C         28.11416        11.61297        -1.08756
C         26.88344        12.19895        -1.38134
C         28.16426        14.81210        -0.81126
C         26.95167        14.36902        -1.31574
C         28.19697        16.16213        -0.33770
C         26.96795        16.91626        -0.27640
C         28.24963        18.94655         0.29471
C         26.99146        18.30770         0.04310
C         28.25562        20.31215         0.64425
C         27.05161        21.08705         0.74511
C         28.33827        23.14612         1.64739
C         27.08364        22.46524         1.11331
C         28.36875        24.64242         1.39948
C         27.11860        25.32825         1.56617
C         28.35905        27.53057         1.27493
C         27.09528        26.81076         1.66725
C         28.11481        28.84638         0.56126
C         27.02697        29.70417         1.24596
C         28.15711        31.64493         0.18662
C         27.16099        31.10012         1.03721
C         27.96924        32.94965        -0.49175
C         26.78627        33.78208        -0.20351
C         27.75271        35.79833        -1.32739
C         26.65806        35.07663        -0.62848
C         27.83062        37.26899        -1.08874
C         26.67281        37.92756        -0.54988
C         30.40421         7.18763         2.60751
C         29.22857         6.48924         2.80965
C         30.59876         8.02595         1.39833
C         29.33174         8.35825         0.62147
C         30.63448        10.24102        -0.57847
C         29.35230         9.50430        -0.35666
C         30.63273        11.64089        -1.26285
C         29.35909        12.42118        -0.89468
C         30.65719        14.69394        -0.69027
C         29.37512        13.93991        -0.74908
C         30.66683        16.01609        -0.30971
C         29.44658        16.79062        -0.11131
C         30.75102        18.86560         0.17748
C         29.49052        18.18727         0.17405
C         30.76408        20.30648         0.29428
C         29.55517        20.97851         0.83256
C         30.79443        23.22077         0.80663
C         29.61661        22.42076         1.22554
C         30.79676        24.58193         0.90881
C         29.57068        25.32505         1.19346
C         30.72031        27.42521         0.51736
C         29.57999        26.74561         0.96987
C         30.61338        28.82410         0.14236
C         29.42681        29.53266         0.23417
C         30.49636        31.64299        -0.50826
C         29.36948        30.93263        -0.11075
C         30.48291        33.14444        -0.58094
C         29.15608        33.62293        -1.13703
C         30.32803        35.81026        -1.80118
C         29.04885        35.05140        -1.58012
C         30.27752        37.34142        -1.72185
C         29.01777        37.95706        -1.26735
C         32.64572         7.82392         3.33351
C         31.50435         7.10327         3.52536
C         32.91326         8.67362         2.18591
C         31.83075         8.84987         1.20439
C         33.05798        10.42018        -0.26447
C         31.83623         9.81428         0.18645
C         33.20020        11.73715        -0.69843
C         31.93762        12.44946        -1.06311
C         33.21122        14.61845        -0.58026
C         31.92186        13.94215        -0.87051
C         33.20293        15.97315        -0.39055
C         31.96605        16.66610         0.12059
C         33.19966        18.85996        -0.12162
C         31.97291        18.16984        -0.03621
C         33.19948        20.32618         0.05466
C         31.92262        21.02722         0.17662
C         33.16882        23.26125        -0.07491
C         31.85267        22.52297        -0.01619
C         33.21435        24.59444         0.12305
C         32.10952        25.33383         0.85825
C         33.17437        27.47538         0.14619
C         32.00296        26.77771         0.42972
C         33.15630        28.86303        -0.18981
C         31.82364        29.47593        -0.39921
C         33.00280        31.75779        -0.65395
C         31.75433        30.94460        -0.73049
C         32.94305        33.14795        -1.14079
C         31.69802        33.78589        -1.21661
C         32.83138        35.89273        -1.72013
C         31.62775        35.14545        -1.58669
C         32.75009        37.34655        -1.68173
C         31.57735        38.01787        -1.54063
C         34.15212         9.32239         2.22763
C         35.63873        11.02121         0.98034
C         34.74237        10.00545         1.10894
C         35.77601        11.69188        -0.40651
C         34.46084        12.45796        -0.67077
C         35.69869        14.62393        -0.58173
C         34.46243        13.86449        -0.67688
C         35.70357        16.01758        -0.58024
C         34.41253        16.75793        -0.80152
C         35.65203        18.89018        -0.45541
C         34.43004        18.19753        -0.37370
C         35.63571        20.36823        -0.80308
C         34.43120        21.11244        -0.25433
C         35.63928        23.27629        -0.67194
C         34.31233        22.54201        -0.76338
C         35.64643        24.65867        -0.58255
C         34.33795        25.40388        -0.49362
C         35.66092        27.52238        -0.38513
C         34.50333        26.75715         0.20865
C         35.59932        28.90117        -0.56317
C         34.33083        29.57194        -0.45176
C         35.51225        31.76626        -1.07864
C         34.31793        31.04821        -0.57629
C         35.40733        33.11304        -1.41294
C         34.15614        33.83795        -1.42436
C         34.07324        35.22749        -1.67167
C         37.00021        12.55659        -0.40600
C         38.19476        14.67896        -0.57291
C         36.97781        13.92714        -0.50920
C         38.19863        16.07852        -0.58903
C         36.91862        16.77433        -0.52129
C         38.17730        18.92817        -0.16769
C         36.88843        18.17887        -0.47697
C         38.14315        20.35015        -0.77347
C         36.89043        21.10631        -0.29650
C         38.09471        23.21793        -0.84488
C         36.89189        22.56020        -0.69994
C         38.08686        24.68000        -1.21207
C         36.85961        25.39772        -0.70335
C         38.09166        27.54101        -0.88722
C         36.86402        26.80187        -0.65106
C         38.03177        28.92213        -1.02325
C         36.79260        29.64375        -0.93881
C         36.72577        31.01897        -1.19289
C         39.40451        16.81246        -0.73875
C         40.60899        18.96809        -0.67375
C         39.44527        18.22315        -0.60121
C         40.65348        20.39703        -0.17399
C         39.39051        21.15325        -0.49841
C         40.60318        23.28411        -0.71984
C         39.36086        22.51527        -0.68182
C         40.58766        24.66121        -0.81236
C         39.36773        25.42119        -0.90027
C         39.33799        26.79897        -0.88575
C         41.88105        21.18437        -0.54812
C         41.84492        22.52395        -0.72340
O         18.08702        20.20079        -0.79475
O         16.02033        11.17724        -2.71893
O         18.13141        37.18021         2.36073
O         26.91881        32.54417         2.91257
O         27.98821        27.43258         2.67159
O         22.78520        22.17365         2.58229
O         19.95407        25.09656         2.75814
O         29.91188        21.38125         2.23977
O          9.90284        14.43883        -1.72146
O         16.79310        13.25909         0.39133
O         17.59983         8.94463        -2.21951
O         24.20784        33.70017         2.49021
O         32.08798        13.33527        -2.21885
O         20.45329        29.12212        -0.73576
O          8.78214        23.11820         1.09268
O         30.24634        36.61944        -3.00283
O         13.80703        23.93809        -0.67033
O         29.37089        13.00560         0.45415
O         23.40399        20.22889        -1.31656
O         18.27957        32.25889         2.14958
O         34.15974         9.57601        -0.11457
O         28.34831        32.73824        -1.92320
O         23.04100        34.88464        -0.33978
O          8.69771        16.36450         1.08022
O         15.22043        27.43468         2.22843
O         35.57502        20.41250        -2.21465
O         26.93317        13.31791        -2.22289
O         24.13355        25.01865         3.16664
O         14.82327        22.81486         2.54768
O         15.77133        19.23570         2.15688
O         22.28626         8.89141         2.18933
O         12.69345        14.03776         0.66722
O         26.66846        10.95072         1.19220
O         15.06458        33.40260         2.20056
O         34.15112        20.86272         1.12565
O         20.43612        33.88005        -0.14612
O         30.19631         7.27229         0.19612
O         19.51809        14.18559        -2.70848
O         31.69333        29.94706        -1.80259
O         28.09110        35.28001        -2.64537
O         24.02414        26.90443         0.03371
O         30.18558         9.20376        -1.51916
O         22.59233        14.48018         0.71503
O          6.58195        21.82925         0.60505
O         10.50994        29.49007        -1.64400
O         15.01495        14.92182        -2.22871
O         33.69866        31.65901         0.63829
O         19.60711         8.42398         1.60159
O         37.96639        24.71418        -2.68156
H         37.90769        25.65662        -2.94798
O         21.14629         5.86659        -0.55917
H         20.37177         5.97910        -1.17105
O         38.27214        18.97581         1.28965
H         37.54317        19.57000         1.60866
O         10.08139        25.20502        -2.38637
H         10.96962        25.59742        -2.53240
O         15.57336        38.05518         2.49450
H         16.39009        37.77233         2.96787
O         32.01793        16.45011         1.58116
H         31.24029        16.90073         1.97530
O         24.81998        35.72519        -1.88899
H         23.87960        35.42683        -1.83890
O         34.87973        26.53278         1.58946
H         34.08656        26.18449         2.07386
O         36.82734        21.11588         1.15781
H         37.39257        21.84449         1.49043
O         13.02042        10.38588        -2.99145
H         13.70377        10.97216        -3.39617
O         12.54504        33.28103         2.18971
H         13.28627        33.04938         2.79771
O         31.34451        22.64266        -1.39964
H         32.12645        22.51333        -1.99939
O         16.86753        26.66669        -0.99488
H         17.72141        26.29233        -1.30062
O         23.69330         9.86116        -1.62773
H         23.08440        10.12460        -2.34976
O         33.91828        25.68338        -1.85639
H         33.85556        24.82253        -2.32825
O         34.27423        16.84610        -2.27620
H         34.31300        15.93271        -2.63440
O         17.52436         6.99485         1.87234
H         18.20917         7.60103         2.25312
O         22.10855        17.35216        -2.38563
H         21.18343        17.43781        -2.73062
O         15.77154        32.27711        -1.21680
H         15.95539        31.47408        -1.74995
O         13.91866        25.18903         2.69327
H         14.52823        25.70619         3.26376
O         13.61778        11.56691         0.43260
H         13.38501        12.38262         0.94196
O         14.06421        12.74938        -2.99105
H         14.67016        13.40838        -3.40166
O         28.22212        23.03492         3.09593
H         28.68277        22.19874         3.34907
O         12.53446        27.75214         2.30108
H         13.29665        27.94010         2.89428
O         11.72260        18.03512         2.05603
H         12.46457        17.52164         2.43982
O         30.48604        11.41692        -2.67520
H         31.30868        11.01434        -3.02149
O         38.13390        20.19134        -2.20359
H         37.17644        20.22406        -2.51692
O         24.03669        10.90546         1.84535
H         24.86721        10.98763         2.36381
O         10.30515        32.00508         1.54902
H         11.02317        32.50283         2.02207
O         19.63486        31.49790        -1.10808
H         20.32554        30.93186        -1.52163
O         19.16824        22.17412         3.06172
H         19.98256        21.90562         3.53601
O         18.55191        23.20474        -0.36216
H         17.72793        23.42445        -0.84484
O         21.70826        22.08974        -0.93320
H         21.93686        21.48670        -1.67820
O         36.02431        10.72753        -1.44401
H         35.38407         9.98563        -1.33192
O         40.69576        20.26006         1.29507
H         39.88961        19.73368         1.54892
O         30.47957        33.65873         0.79844
H         31.31857        33.38183         1.22707
O         27.55905        28.44734        -0.73389
H         27.54694        29.23406        -1.32012
O         21.12748        33.84283         3.36931
H         20.60850        33.01160         3.43540
O         27.61438         9.45693        -1.99070
H         28.42513         9.32711        -2.53529
O         33.97019        22.45458        -2.18021
H         34.56662        21.71767        -2.54047
O         15.89375         7.03629        -2.63675
H         16.18288         7.82046        -3.15719
O         18.89900         6.81293        -1.55507
H         18.75867         7.38173        -2.34737
O         22.49086        35.98654         3.06428
H         21.93218        35.61502         3.78316
O         20.78174        26.67085        -0.45664
H         20.62179        27.39478        -1.11340
O         17.69007        10.66599         0.97886
H         18.28239        11.26231         1.48437
O         32.52543        25.37571         2.27869
H         32.50340        24.45857         2.62843
O         19.37606        17.57223        -2.28674
H         18.68414        18.26842        -2.32054
O         24.97865        31.22183         3.32659
H         24.79857        32.14593         3.61033
H          5.16882        18.42902        -1.75291
H          3.98722        20.57843        -2.12026
H          3.97822        23.02377        -2.16559
H          5.24222        25.17555        -2.00916
H          7.28908        14.05630         0.33858
H          6.17070        16.33691        -1.12413
H          6.42366        27.31261        -1.70768
H          7.25305        29.33132        -0.85123
H          9.94921         9.75671        -0.53158
H          8.66246        11.63510        -0.28650
H          8.50061        31.63189         0.03309
H         10.14315        33.83339        -0.91821
H         12.43934         5.56140        -0.70024
H         11.21098         7.64142        -0.62809
H         11.49913        35.95072        -0.79207
H         12.66823        38.02358        -0.57794
H         14.54245         4.36011        -0.30403
H         14.58612        39.33142         0.18287
H         16.77347         4.59796         0.64707
H         17.00113        38.90512        -0.32730
H         19.27816         4.86502         1.69451
H         19.73706        39.24150         0.22773
H         21.92283         4.81995         1.92889
H         22.01974        39.17730         0.57996
H         24.33248         5.04252         2.58846
H         24.34377        39.06190         0.20399
H         26.77719         5.28841         3.04435
H         26.73504        39.01493        -0.38363
H         29.16908         5.79075         3.65867
H         29.05319        39.02066        -0.98192
H         33.44988         7.74245         4.08025
H         31.40171         6.46368         4.41403
H         33.69922        37.90047        -1.62249
H         31.58156        39.10229        -1.35350
H         34.73892         9.23762         3.15551
H         36.12748        11.47154         1.85491
H         36.31285        33.65005        -1.73450
H         34.99882        35.81118        -1.78658
H         37.96604        12.03113        -0.36246
H         39.14856        14.13110        -0.60919
H         38.95578        29.48852        -1.21518
H         37.63861        31.54745        -1.50784
H         40.34009        16.26131        -0.92321
H         41.55971        18.46502        -0.91607
H         41.54214        25.21121        -0.80663
H         40.27884        27.36528        -0.80241
H         42.84421        20.65196        -0.57390
H         42.77783        23.07658        -0.91549
