         224
 CSIRO Nanostructure Databank - Neutral Graphene Oxide Data Set
C        -11.08384         0.66687        -0.63053
C         -9.87814         1.46310        -0.55021
C         -8.58876         0.73214        -0.65758
C         -7.35051         1.42548        -0.16434
C         -6.15210         0.63272         0.23088
C         -4.91291         1.35003         0.45257
C         -3.70658         0.68675         0.33352
C         -2.41443         1.39735         0.18846
C         -1.25450         0.68856        -0.44087
C          0.05886         1.43188        -0.54711
C          1.31644         0.66650        -0.38412
C          2.55079         1.43184        -0.23419
C          3.79383         0.72910        -0.02690
C          5.02520         1.44544         0.07036
C          6.24322         0.78439         0.23635
C          7.48959         1.47575         0.02031
C          8.71403         0.81116         0.03195
C          9.94422         1.49552        -0.33165
C         11.16994         0.71056        -0.41657
C         -9.88675         2.83449        -0.41096
C         -8.69767         3.62047        -0.10616
C         -7.48699         2.83853         0.30881
C         -6.23061         3.56127         0.65550
C         -4.88293         2.84083         0.77359
C         -3.77562         3.54110        -0.05303
C         -2.41858         2.87589         0.14897
C         -1.21893         3.59763        -0.38058
C          0.08304         2.89653        -0.34495
C          1.28869         3.57536        -0.35464
C          2.52103         2.84142        -0.30276
C          3.80703         3.59490        -0.55404
C          4.99769         2.94826         0.15823
C          6.28630         3.58995        -0.29492
C          7.44756         2.89155        -0.35274
C          8.67831         3.59772        -0.89294
C          9.94635         2.82663        -0.66209
C         -8.71342         4.98645         0.00784
C         -7.55765         5.77437         0.62991
C         -6.26459         5.03203         0.34170
C         -4.98626         5.77660         0.16970
C         -3.71995         5.01160         0.33963
C         -2.44173         5.76614         0.31147
C         -1.24665         5.08391        -0.27421
C          0.04372         5.83270        -0.24349
C          1.32338         5.06413        -0.31308
C          2.57212         5.76143         0.09341
C          3.81076         5.06392        -0.15982
C          5.01654         5.72247        -0.12698
C          6.25246         5.05247        -0.69289
C          7.55380         5.76021        -0.35977
C          8.70811         5.04286        -0.42560
C         -7.43131         7.23688         0.23454
C         -6.23273         7.92348         0.14547
C         -4.95057         7.24952         0.21704
C         -3.73944         7.93461         0.16991
C         -2.46585         7.24873         0.23768
C         -1.26558         7.92022         0.28052
C         -0.02452         7.09574         0.59811
C          1.28222         7.86472         0.60012
C          2.54185         7.10906         0.39071
C          3.79071         7.87029         0.57261
C          5.10078         7.11578         0.32047
C          6.33695         7.87963         0.02271
C          7.51253         7.20068        -0.18463
C         -6.17208         9.36765        -0.02805
C         -4.98997        10.04672        -0.06657
C         -3.70717         9.37795         0.04290
C         -2.49152        10.04464        -0.00847
C         -1.22113         9.36496         0.14002
C         -0.00598        10.03593         0.12721
C          1.28143         9.36526         0.41668
C          2.58460         9.99718         0.10612
C          3.76868         9.33115         0.29109
C          5.05286         9.98888         0.11996
C          6.24148         9.32235         0.03582
C        -11.08221        -0.70157        -0.65132
C         -9.87247        -1.49911        -0.63074
C         -8.59151        -0.76744        -0.76012
C         -7.32366        -1.51461        -0.40151
C         -6.16442        -0.74910         0.11654
C         -4.98948        -1.53266         0.48389
C         -3.62463        -0.76310         0.49322
C         -2.44383        -1.49509         0.06095
C         -1.27779        -0.80649        -0.47152
C          0.09374        -1.55126        -0.50487
C          1.31021        -0.71641        -0.34979
C          2.58706        -1.45641        -0.27946
C          3.82645        -0.70819         0.00115
C          4.99632        -1.40823         0.28687
C          6.19587        -0.63030         0.77753
C          7.51750        -1.38148         0.66790
C          8.79032        -0.62706         0.37109
C          9.97985        -1.40199        -0.04067
C         11.17562        -0.64821        -0.34948
C         -9.87137        -2.86910        -0.49839
C         -8.65929        -3.65137        -0.28011
C         -7.41582        -2.95588        -0.11070
C         -6.22101        -3.68949         0.15557
C         -4.96328        -2.98437         0.26792
C         -3.74979        -3.66340         0.29171
C         -2.50043        -2.94188        -0.02770
C         -1.17223        -3.71155        -0.02259
C          0.10061        -2.95494        -0.01438
C          1.26079        -3.59279         0.33672
C          2.55983        -2.94142         0.05690
C          3.82534        -3.59421         0.43564
C          5.02016        -2.84544         0.39515
C          6.27523        -3.54458         0.44797
C          7.50689        -2.83612         0.42408
C          8.72259        -3.51932         0.20174
C          9.94322        -2.77685        -0.01919
C         -8.70097        -5.03691        -0.14705
C         -7.52544        -5.85509         0.32392
C         -6.23421        -5.07983         0.27484
C         -4.98233        -5.79098         0.51215
C         -3.70288        -5.08589         0.38174
C         -2.48956        -5.80092         0.40785
C         -1.19875        -5.11522         0.43872
C         -0.02474        -5.76093         0.75626
C          1.24961        -4.99003         0.84742
C          2.57640        -5.70978         0.98609
C          3.84898        -4.99916         0.65718
C          5.06628        -5.68728         0.60987
C          6.28318        -4.96758         0.43442
C          7.52547        -5.66481         0.24014
C          8.70545        -4.93718         0.09119
C         -7.37899        -7.22228        -0.33375
C         -6.20654        -7.92244        -0.30945
C         -4.96869        -7.31782         0.23813
C         -3.66901        -7.93090        -0.01950
C         -2.50515        -7.21964         0.25876
C         -1.24122        -7.97307         0.41586
C         -0.00791        -7.24361         0.85953
C          1.30336        -7.98052         0.80535
C          2.59693        -7.21821         0.93599
C          3.84224        -7.88521         0.52424
C          5.13077        -7.17932         0.86142
C          6.34809        -7.82883         0.24713
C          7.49324        -7.10295         0.06458
C         -6.06704        -9.28732        -0.79862
C         -4.87848        -9.95181        -0.80202
C         -3.61062        -9.32210        -0.45076
C         -2.40615        -9.97915        -0.53723
C         -1.10514        -9.21451        -0.44029
C          0.15998        -9.98611        -0.17916
C          1.33136        -9.34735         0.21104
C          2.60532        -9.96325         0.06300
C          3.82451        -9.25090         0.20937
C          5.09274        -9.91672        -0.05869
C          6.27414        -9.24110        -0.05378
O          2.66962        -2.46279        -1.34504
O         -2.97832         5.22691         1.57247
O          8.40806        -0.97083         1.76864
O          4.02879         3.48529        -1.99772
H          3.19344         3.73191        -2.45025
O         -4.29798        -1.19294         1.72249
O          5.28469        -7.34509         2.31479
H          4.41435        -7.16704         2.73378
O         -4.55689         2.96293         2.16815
H         -3.63687         2.63182         2.30917
O          1.91995        -5.14722         2.16247
O         -7.79288         5.76779         2.06481
H         -7.72365         4.82585         2.35874
O         -0.69678        -1.33381        -1.69845
O         -4.09088         3.37314        -1.43939
H         -3.38167         3.80478        -1.97156
O         -1.52055         4.42816        -1.55972
O         -0.19759         6.58467         1.94669
H          0.04441         7.31618         2.55954
O         -7.14134         3.11366         1.71046
O         -0.90545        -8.64620        -1.79857
H         -0.89676        -9.39211        -2.43552
O          1.99012        -7.88704         2.10021
O          4.80573         3.24904         1.57200
H          5.45758         2.72823         2.08691
O          4.61687         7.40030         1.67691
O         -1.91714        -3.52468        -1.26221
O          1.32704         8.73757         1.77794
O         -0.81094         1.18643        -1.73449
O         -7.78167        -6.15118         1.75142
H         -6.93523        -6.52230         2.10525
O          8.53611         3.66206        -2.35082
H          7.72931         4.21382        -2.53075
O         -2.09408         2.19937         1.40712
O          6.16359         5.11084        -2.15748
H          5.39191         4.53559        -2.40914
O          5.93661        -0.45727         2.21420
H          6.82333        -0.43501         2.64836
O         -7.65193         1.35169        -1.59654
O         -0.87209        -7.95067         1.82448
O         -5.76091         5.29662        -1.00009
O          0.75998         5.80077        -1.49442
O         -7.70816        -1.24316        -1.81197
O         -5.07770        -6.78291         1.59954
H         12.11081        -1.20434        -0.51213
H         12.10224         1.24986        -0.64028
H         10.89175         3.30426        -0.96317
H          9.68081         5.53645        -0.27367
H          8.45495         7.76221        -0.28477
H          7.17081         9.89668        -0.09715
H          5.04945        11.08703         0.04871
H          2.59372        11.05612        -0.19552
H          0.00865        11.12307        -0.04477
H         -2.48206        11.13900        -0.12811
H         -4.99488        11.14085        -0.18419
H         -7.12042         9.91957        -0.11049
H         -8.36775         7.81423         0.16856
H         -9.64421         5.52961        -0.22246
H        -10.85285         3.36324        -0.43113
H        -12.04658         1.19968        -0.62466
H        -12.04336        -1.23719        -0.65846
H        -10.83403        -3.40199        -0.45709
H         -9.66594        -5.55533        -0.25664
H         -8.28727        -7.70769        -0.72477
H         -6.97781        -9.80194        -1.13985
H         -4.84746       -10.99624        -1.14712
H         -2.37914       -11.03256        -0.85869
H          0.23399       -11.00208        -0.60075
H          2.64602       -11.01002        -0.27425
H          5.07045       -10.98790        -0.30672
H          7.20552        -9.76133        -0.32455
H          8.40744        -7.60231        -0.29276
H          9.64914        -5.46793        -0.10409
H         10.85512        -3.34446        -0.25969
