         420
 CSIRO Nanostructure Databank - Neutral Graphene Oxide Data Set
C         28.00770        27.27091        -0.55756
C         27.97554        28.69878        -0.73565
C         26.74949        29.39795        -0.75975
C         27.92901        31.53037        -0.94844
C         26.73275        30.77961        -0.83074
C         27.87576        32.99701        -0.93463
C         26.73450        33.68862        -0.59856
C         27.82490        35.89004        -0.53886
C         26.70434        35.11530        -0.45068
C         27.76919        37.40013        -0.53358
C         26.71269        38.03591         0.33741
C         27.92285        40.16146         0.20142
C         26.77063        39.36381         0.59332
C         27.91560        41.60939         0.30032
C         26.72949        42.30371         0.68465
C         27.91655        44.42471         0.72862
C         26.72183        43.66838         0.86372
C         27.93508        45.82950         0.98167
C         30.45460        27.25698        -0.50509
C         29.18499        26.58504        -0.45769
C         30.44943        28.70480        -0.70124
C         29.18845        29.42180        -0.87318
C         30.42908        31.56275        -1.32966
C         29.15938        30.83039        -1.04251
C         30.41535        33.07254        -1.33117
C         29.09610        33.77966        -1.23141
C         30.37971        35.94729        -0.63323
C         29.09672        35.27040        -0.96995
C         30.32554        37.32563        -0.33907
C         29.10967        38.04746        -0.27556
C         30.32930        40.21043        -0.47156
C         29.10345        39.46107        -0.11458
C         30.29151        41.71682        -0.50191
C         29.08672        42.37290         0.05160
C         30.34596        44.52082         0.28552
C         29.11419        43.76599         0.33731
C         30.34254        45.91807         0.57098
C         29.09921        46.55013         0.89354
C         32.94338        24.45730        -0.48501
C         31.76510        25.10642        -0.34139
C         32.92796        27.26656        -0.46019
C         31.67338        26.55050        -0.47908
C         32.86255        28.72006        -0.23223
C         31.62282        29.42057        -0.61170
C         32.92477        31.60782        -0.72410
C         31.75016        30.78639        -1.23846
C         32.91918        33.07889        -1.00727
C         31.63989        33.84259        -0.99669
C         32.88877        35.80895        -0.03768
C         31.60490        35.18562        -0.62593
C         32.86605        37.33237         0.09450
C         31.56651        38.08162        -0.02469
C         32.81795        40.23836        -0.16075
C         31.61950        39.52464        -0.29677
C         32.83556        41.67924        -0.21274
C         31.60910        42.48771        -0.63447
C         32.77396        44.57551         0.07744
C         31.57243        43.87080        -0.01307
C         32.79270        45.95571         0.41620
C         31.57672        46.65466         0.56315
C         32.74489        48.83667         0.50142
C         31.60007        48.10538         0.55441
C         35.55763        23.05794        -0.97912
C         35.47966        24.46871        -0.79193
C         34.16331        25.18085        -1.00084
C         35.40789        27.35943        -0.48252
C         34.15599        26.62975        -0.55975
C         35.41666        28.77855        -0.37981
C         34.14759        29.49675        -0.18722
C         35.34275        31.68227        -0.11483
C         34.08294        30.96426        -0.41419
C         35.37145        33.16989        -0.26982
C         34.18933        33.84671        -0.88444
C         35.40131        36.01371        -0.30881
C         34.13207        35.37545        -0.84658
C         35.36062        37.41121        -0.11317
C         34.11257        38.11003        -0.06917
C         35.30727        40.25462         0.08304
C         34.07681        39.51836        -0.02889
C         35.28168        41.68571         0.07191
C         34.04167        42.37171        -0.09626
C         35.33421        44.60263        -0.04673
C         34.03829        43.85617        -0.21628
C         35.34934        46.03008         0.33511
C         34.06935        46.66928         0.63734
C         35.33944        48.91514         0.43052
C         34.06248        48.21650         0.70830
C         35.37481        50.31504         0.23077
C         38.06843        23.10002        -1.04685
C         36.74721        22.39130        -1.06070
C         37.95058        24.55473        -0.66336
C         36.67700        25.21700        -0.65289
C         37.93328        27.38354        -0.70488
C         36.63238        26.64359        -0.54299
C         37.90355        28.84243        -0.35920
C         36.64320        29.54044        -0.40195
C         37.83694        31.71226        -0.41671
C         36.60872        30.93923        -0.25765
C         37.85030        33.16965        -0.17919
C         36.66156        33.88666        -0.27855
C         37.85232        35.99252         0.12521
C         36.62561        35.30940        -0.17369
C         37.83212        37.42924         0.22369
C         36.57633        38.14143         0.10507
C         37.76527        40.27396         0.68243
C         36.53138        39.53376         0.23017
C         37.78277        41.68691         0.17230
C         36.50552        42.44254         0.21166
C         37.77465        44.57408         0.54099
C         36.54391        43.81826         0.21933
C         37.81011        46.03857         0.38568
C         36.54883        46.74049         0.40580
C         37.80947        48.87877         0.29426
C         36.56050        48.19343         0.42043
C         37.82093        50.30399         0.14465
C         36.57257        50.98736         0.09170
C         40.22038        20.30365         0.45921
C         39.11373        20.98277        -0.01661
C         40.34269        23.07233         0.01152
C         39.17299        22.37367        -0.28620
C         40.45666        24.53277        -0.35047
C         39.13183        25.26581        -0.31850
C         40.11220        27.36643         0.72422
C         39.10398        26.63866        -0.13169
C         40.29492        28.82293         0.32909
C         39.10852        29.50514        -0.10748
C         40.34126        31.70600         0.16175
C         39.16601        30.95882        -0.30133
C         40.29246        33.10138         0.28864
C         39.08247        33.83700         0.09221
C         40.30132        35.93804         0.55875
C         39.05732        35.25537         0.27873
C         40.26672        37.39415         0.69106
C         39.03054        38.13517         0.40012
C         40.28537        40.25440         0.41765
C         39.07114        39.55835         0.44285
C         40.34237        41.67695         0.41050
C         39.07765        42.40417         0.19791
C         40.33857        44.58035         0.35008
C         39.08326        43.84685         0.52846
C         40.30241        45.98265         0.33114
C         39.03705        46.70652         0.36570
C         40.28580        48.83477         0.25461
C         39.05612        48.15219         0.30529
C         40.30135        50.27351         0.09520
C         39.06324        51.00113         0.02314
C         40.30304        53.09466        -0.28618
C         39.13437        52.44048        -0.06287
C         42.64788        20.28850         1.01948
C         41.45096        20.97909         0.66327
C         42.74470        23.08625         0.64291
C         41.50437        22.38691         0.46494
C         42.74024        24.53498         0.66299
C         41.55153        25.22235         0.41767
C         42.71667        27.36880         1.16040
C         41.42619        26.60480         0.87981
C         42.68748        28.89260         1.25325
C         41.46735        29.53380         0.59677
C         42.75394        31.67421         0.66069
C         41.51062        30.96455         0.50389
C         42.77641        33.07960         0.67071
C         41.47785        33.79100         0.92711
C         42.77947        35.96734         0.65184
C         41.51224        35.27039         0.67046
C         42.81932        37.37208         0.57480
C         41.57223        38.13183         0.71316
C         42.82281        40.27268         0.50950
C         41.57030        39.52374         0.14577
C         42.80545        41.68740         0.51074
C         41.54431        42.39192         0.39086
C         42.78330        44.53171         0.22343
C         41.55845        43.84073         0.30221
C         42.77611        45.96555         0.15875
C         41.54077        46.68411         0.23091
C         42.77797        48.78458         0.18645
C         41.54403        48.10971         0.22447
C         42.77704        50.26559         0.43091
C         41.52071        50.94183        -0.03572
C         42.80548        53.06825        -0.07707
C         41.57705        52.34874        -0.55519
C         43.84555        20.95723         1.11043
C         45.19110        23.08555         0.97645
C         43.92694        22.37139         0.91801
C         45.20535        24.50978         0.92619
C         43.97357        25.24413         0.90301
C         45.21396        27.37405         0.87813
C         43.99387        26.65975         0.94593
C         45.19710        28.82027         0.79017
C         43.98331        29.53941         0.80079
C         45.22088        31.65925         0.51889
C         43.99423        30.94458         0.66013
C         45.22362        33.08489         0.44738
C         43.99536        33.79610         0.57614
C         45.23321        35.94206         0.43799
C         44.00838        35.23814         0.56624
C         45.25800        37.37522         0.42741
C         44.03746        38.09329         0.46983
C         45.27957        40.22215         0.63175
C         44.04882        39.54052         0.53585
C         45.26653        41.69100         0.98315
C         44.01537        42.41112         0.57395
C         45.27177        44.48547         0.21109
C         44.04155        43.81334         0.34214
C         45.25762        45.90123        -0.30304
C         44.00274        46.66749         0.04793
C         45.26674        48.80646         0.01244
C         44.01032        48.07863         0.08759
C         45.26607        50.23806         0.00854
C         44.05316        50.97444         0.07799
C         43.98405        52.40293         0.10517
C         47.63160        23.08863         1.02860
C         46.42911        22.40542         1.04992
C         47.68029        24.50343         0.93336
C         46.44711        25.21691         0.90574
C         47.69189        27.33808         0.80276
C         46.45421        26.65017         0.84217
C         47.68193        28.80478         0.86145
C         46.42435        29.53680         0.68001
C         47.68387        31.63874         0.21394
C         46.45083        30.93703         0.51764
C         47.67315        33.08275         0.06119
C         46.45551        33.79924         0.28394
C         47.69516        35.93634         0.17740
C         46.46605        35.22193         0.29969
C         47.72287        37.36919         0.25984
C         46.49888        38.08806         0.39096
C         47.76384        40.20216         0.55853
C         46.50820        39.51479         0.51709
C         47.80668        41.67606         0.93601
C         46.53212        42.41719         0.62453
C         47.78554        44.50616         0.18602
C         46.52166        43.77737         0.34785
C         47.74773        45.94795         0.02131
C         46.53241        46.65462        -0.02763
C         47.73812        48.80469        -0.12168
C         46.50540        48.08577        -0.04920
C         47.70369        50.22979        -0.15685
C         46.52084        50.91859        -0.10544
C         50.17751        24.53520         0.77237
C         48.93192        25.21837         0.82812
C         50.17891        27.34592         0.52637
C         48.93282        26.64194         0.74404
C         50.19427        28.75179         0.27673
C         48.98191        29.54822         0.54920
C         50.02330        31.53696        -0.59389
C         48.86911        30.92295         0.06295
C         50.05227        33.06289        -0.66231
C         48.86528        33.79782        -0.18709
C         50.11725        35.94989        -0.27310
C         48.90243        35.22185        -0.07184
C         50.17679        37.34498        -0.05072
C         48.96247        38.07194         0.22830
C         50.24203        40.22030         0.61462
C         48.95755        39.49171         0.43799
C         50.23882        41.70019         0.46941
C         49.05545        42.38716         0.46394
C         50.25445        44.53131         0.01130
C         49.00715        43.82878         0.25385
C         50.21896        45.95203        -0.20788
C         48.98555        46.66679        -0.10937
C         50.20983        48.76655        -0.42808
C         48.97545        48.08584        -0.21579
C         51.36555        25.20918         0.59739
C         52.64154        27.33065         0.22290
C         51.40308        26.62428         0.44138
C         52.61842        28.71962        -0.08217
C         51.36576        29.39946        -0.13057
C         52.61181        31.57592        -0.75536
C         51.31966        30.78735        -0.64641
C         52.56603        33.06434        -0.71399
C         51.36555        33.74352        -0.68794
C         52.62918        35.96886        -0.79713
C         51.31263        35.22292        -0.74412
C         52.63769        37.38597        -0.38303
C         51.44778        38.03992        -0.08994
C         52.76127        40.21187         0.03196
C         51.52072        39.46155         0.32446
C         52.80594        41.65373         0.28381
C         51.54202        42.45902         0.63084
C         52.67361        44.52445        -0.41779
C         51.48320        43.84745         0.00365
C         52.63136        45.92025        -0.72133
C         51.41821        46.65424        -0.49859
C         51.38342        48.07484        -0.58864
C         55.08191        27.36441         0.19372
C         53.90534        26.66934         0.31573
C         55.08379        28.77377        -0.03063
C         53.85006        29.46149        -0.20978
C         55.07581        31.59263        -0.37313
C         53.86691        30.87349        -0.40696
C         55.06514        33.05105        -0.51060
C         53.84281        33.77180        -0.65107
C         55.09514        35.89955        -0.60041
C         53.87548        35.18832        -0.68187
C         55.09235        37.35957        -0.64127
C         53.90132        38.07794        -0.42888
C         55.13472        40.21718        -0.71622
C         53.92195        39.52266        -0.33954
C         55.12421        41.61961        -0.88761
C         54.03234        42.39690        -0.29009
C         54.97886        44.44912        -1.29026
C         53.89530        43.81774        -0.64744
C         54.91113        45.84059        -1.57756
C         53.78056        46.55734        -1.26807
C         56.29745        29.50499        -0.05021
C         56.29098        30.87626        -0.19399
C         56.27040        33.77925        -0.44461
C         56.29254        35.16496        -0.49290
C         56.29921        38.07624        -0.89257
C         56.30618        39.44541        -0.98417
C         56.17204        42.32676        -1.54800
C         56.12954        43.68961        -1.69469
O         34.10994        47.39518         1.91539
O         41.95354        26.75362         2.25997
O         34.75476        44.36210        -1.39565
O         28.98455        34.73497        -2.33835
O         38.47666        41.97002        -1.09071
O         40.87412        37.91127         1.96392
O         33.81088        33.33906        -2.20212
O         53.90556        42.08162         1.15349
O         51.05296        39.69743         1.71603
O         30.42872        32.30758        -2.60035
O         49.73225        32.23620        -1.83682
O         30.07060        40.94615        -1.74200
O         38.63486        31.36036        -1.60746
O         48.52103        29.36731         1.93406
O         32.13675        37.73260         1.31096
O         38.40885        44.12367         1.80746
O         51.98562        30.95419        -1.93457
O         51.85108        35.73876        -2.02001
O         33.43595        29.13469         1.06851
O         35.17095        32.57126         1.06306
O         34.01185        25.21924        -2.47574
H         33.16062        25.66978        -2.66548
O         47.92431        41.69687         2.39906
H         47.03276        41.46329         2.76130
O         33.03505        35.25905         1.28690
H         32.55787        35.86230         1.90196
O         45.21651        45.76883        -1.78338
H         45.20978        46.67757        -2.15349
O         42.59980        29.23276         2.66786
H         42.16054        28.47636         3.11975
O         45.21421        41.70043         2.49165
H         45.02127        42.62405         2.76446
O         39.47234        27.40990         2.04146
H         40.18927        27.29978         2.70962
O         27.40579        37.74466        -1.91864
H         27.53413        38.71221        -2.02197
O         38.16453        27.37631        -2.18127
H         37.49019        27.96453        -2.58494
O         41.25958        33.66179         2.38577
H         40.50066        34.23695         2.62252
O         32.13720        30.45492        -2.61074
H         31.80880        31.19998        -3.17254
O         41.62917        39.32151        -1.31194
H         41.54207        40.20027        -1.73943
O         41.71154        52.24782        -2.03654
H         40.86667        51.88493        -2.37898
O         33.95942        35.88083        -2.18501
H         33.78348        35.09895        -2.76507
O         51.60658        42.72972         2.06338
H         52.56039        42.71257         2.31229
O         40.86112        24.56723        -1.76084
H         40.17408        24.05341        -2.25890
O         38.55035        23.09960        -2.45756
H         37.88475        23.59124        -2.98667
O         42.72489        50.38790         1.91829
H         43.51171        49.91695         2.26889
O         37.63318        40.41681         2.13623
H         37.72303        39.52630         2.53700
O         31.81516        42.75419        -2.05079
H         31.39124        42.00943        -2.54034
H         27.05040        26.73305        -0.49512
H         25.80650        28.83836        -0.68129
H         25.76340        31.29420        -0.81311
H         25.79694        33.15201        -0.39968
H         25.73352        35.57736        -0.22122
H         25.83138        37.45479         0.64509
H         25.94775        39.84180         1.14323
H         25.79435        41.74654         0.82636
H         25.79140        44.18341         1.14289
H         26.99709        46.32803         1.26602
H         29.15807        25.49490        -0.32422
H         29.07971        47.62504         1.11822
H         32.98078        23.36788        -0.34135
H         30.86751        24.53742        -0.05918
H         32.68176        49.92104         0.33126
H         30.64271        48.63618         0.45397
H         34.62578        22.48646        -1.09987
H         34.43772        50.88823         0.21317
H         36.73857        21.31512        -1.28449
H         36.54912        52.07624        -0.04583
H         40.16610        19.21982         0.63645
H         38.18778        20.42424        -0.20959
H         40.31818        54.19306        -0.34874
H         38.21671        53.02992         0.07356
H         42.60831        19.20224         1.18581
H         42.77056        54.16420         0.01405
H         44.75215        20.38955         1.36019
H         44.89778        52.98990         0.28610
H         48.56151        22.50671         1.07239
H         46.45080        21.30865         1.10086
H         48.63842        50.80109        -0.22164
H         46.54095        52.01569        -0.13524
H         50.20650        23.44077         0.85400
H         50.23359        49.86161        -0.49373
H         52.29424        24.62615         0.54368
H         52.30866        48.63852        -0.76484
H         56.04470        26.84393         0.29962
H         53.94579        25.59180         0.52232
H         55.76939        46.33127        -2.05781
H         53.75144        47.62878        -1.50496
H         57.24851        28.96822         0.07633
H         57.25146        31.40667        -0.18304
H         57.22842        33.25439        -0.34244
H         57.25882        35.68088        -0.42099
H         57.23177        37.52679        -1.07641
H         57.24732        39.95729        -1.22457
H         57.03290        41.77238        -1.94554
H         56.95525        44.21722        -2.19261
