         621
 CSIRO Nanostructure Databank - Neutral Graphene Oxide Data Set
C          5.96011        31.66235         0.80823
C          5.91553        33.02073         0.89738
C          8.46630        27.47163         0.21999
C          8.41241        28.84857         0.21636
C          7.20282        29.57464         0.45463
C          8.34617        31.74566         0.07667
C          7.17326        30.96031         0.46492
C          8.25987        33.16871         0.15768
C          7.09260        33.82555         0.64719
C          8.26576        36.01037         0.92167
C          7.08826        35.19645         0.95953
C          8.30265        37.31179         1.35937
C         10.91469        23.18440        -0.20989
C         10.89821        24.59575        -0.23286
C          9.69926        25.32470         0.01445
C         10.89590        27.42278        -0.30651
C          9.68850        26.72095         0.00740
C         10.76856        28.86844        -0.60266
C          9.69200        29.64828         0.11471
C         10.67352        31.83076        -0.88951
C          9.50942        31.07976        -0.35555
C         10.70507        33.32790        -0.58465
C          9.43091        33.99430        -0.16007
C         10.79214        36.06827         0.49803
C          9.47193        35.42679         0.28267
C         10.80691        37.37001         0.94783
C          9.58563        38.08057         1.49941
C         10.72812        40.23985         0.92249
C          9.53778        39.50331         0.99863
C         10.75918        41.64158         0.67691
C         13.15454        18.85531        -0.30981
C         13.27262        20.27521        -0.61126
C         12.13152        21.04781        -0.35656
C         13.34295        23.17947        -0.61426
C         12.10916        22.46913        -0.42597
C         13.34586        24.58936        -0.58913
C         12.12650        25.30497        -0.45387
C         13.31323        27.47546        -0.86791
C         12.10182        26.74269        -0.54573
C         13.26102        28.87767        -1.07438
C         11.96959        29.59868        -1.10442
C         13.23197        31.78354        -0.73262
C         11.98836        31.11523        -1.28623
C         13.23312        33.25107        -0.56221
C         11.98642        34.03529        -0.31466
C         13.34155        36.07199         0.40035
C         12.01286        35.32620         0.20586
C         13.26465        37.42456         1.12325
C         12.04543        38.12176         1.06719
C         13.19500        40.30929         1.17329
C         11.99299        39.54602         1.11657
C         13.17584        41.71476         1.11357
C         11.95436        42.41523         0.80774
C         13.14713        44.65806         1.03076
C         11.94632        43.81886         0.66437
C         13.23342        45.99077         0.33501
C         15.67470        14.51555        -0.43207
C         15.54779        15.90105        -0.59360
C         14.27247        16.52936        -0.38398
C         15.83289        18.89969        -1.37182
C         13.98808        17.85288        -0.80356
C         15.75244        20.30184        -1.15763
C         14.50740        20.98534        -0.94714
C         15.79260        23.11033        -0.90608
C         14.55597        22.41514        -0.82966
C         15.93900        24.58278        -0.54005
C         14.60978        25.37935        -0.32142
C         15.73923        27.47812        -1.23083
C         14.58283        26.78681        -0.90693
C         15.70835        28.93547        -1.39791
C         14.44449        29.64016        -1.09321
C         15.70055        31.62486        -0.35050
C         14.41503        31.04687        -0.80535
C         15.69555        33.00960         0.22524
C         14.52480        33.88747        -0.03253
C         15.64690        35.47248         1.42331
C         14.45327        35.09843         0.76955
C         15.68082        37.61002         1.77365
C         14.43957        38.20570         1.39706
C         15.70378        40.30733         1.31140
C         14.44218        39.61327         1.32125
C         15.71566        41.72051         1.24799
C         14.42626        42.47507         1.48074
C         15.71817        44.51994         0.53404
C         14.41568        43.84107         0.82759
C         15.71415        45.98651         0.38025
C         14.45797        46.67476         0.20912
C         15.71277        48.80202         0.06728
C         14.50652        48.07768        -0.05069
C         15.76541        50.21831        -0.12889
C         18.14448        10.20218        -0.01213
C         18.10696        11.61352        -0.27599
C         16.93373        12.35029        -0.36392
C         18.13086        14.48872        -0.57337
C         16.91796        13.78951        -0.48020
C         18.14910        15.95041        -0.47652
C         16.81704        16.70976        -0.61060
C         18.19111        18.81401        -0.90899
C         16.94250        18.13334        -1.01361
C         18.21904        20.23487        -1.04375
C         16.99953        20.97981        -1.06898
C         18.27605        23.08269        -1.14054
C         17.01411        22.40389        -1.02783
C         18.26957        24.50458        -1.47399
C         16.97345        25.26245        -1.44401
C         18.36709        27.49615        -1.66434
C         16.99726        26.75588        -1.57039
C         18.31173        28.94753        -1.20116
C         17.05081        29.68501        -1.40704
C         18.25224        31.86771        -0.77216
C         17.00844        31.00625        -0.69695
C         18.26575        33.10931         0.09296
C         16.99667        33.71078         0.50965
C         18.17451        35.84637         1.23947
C         16.93173        35.09383         0.98753
C         18.18234        37.37126         1.53161
C         16.92558        38.16793         1.53747
C         18.17709        40.27517         1.25987
C         16.93795        39.57783         1.27765
C         18.16078        41.67982         1.29245
C         16.94070        42.41307         1.20745
C         18.15054        44.55597         0.94567
C         16.97895        43.84763         0.94296
C         18.22925        45.92980         0.32410
C         16.92469        46.69290         0.41148
C         18.14321        48.86101         0.77665
C         16.92385        48.09390         0.35097
C         18.18902        50.27585         0.27531
C         16.97557        50.95021        -0.07075
C         18.21085        53.08182        -0.26823
C         17.01678        52.35530        -0.33730
C         18.26245        54.50938        -0.43587
C         20.49390         5.89332         0.83965
C         20.55464         7.40335         0.61858
C         19.40012         8.10095         0.43768
C         20.57934        10.28719         0.28820
C         19.34610         9.53571         0.18150
C         20.63160        11.64170         0.02344
C         19.40796        12.27798        -0.50459
C         20.66996        14.52113        -0.48166
C         19.40811        13.78406        -0.70921
C         20.63375        15.90951        -0.61515
C         19.41922        16.65762        -0.73982
C         20.64207        18.81119        -0.95279
C         19.41947        18.07441        -0.84611
C         20.67929        20.20003        -0.97115
C         19.46301        20.93797        -1.01319
C         20.76979        23.05160        -1.00948
C         19.49237        22.36246        -1.08124
C         20.72542        24.50691        -0.75524
C         19.57620        25.30731        -1.25486
C         20.65280        27.38742        -0.38590
C         19.47509        26.71654        -0.96072
C         20.65827        28.89390        -0.34828
C         19.43464        29.62513        -0.74858
C         20.69667        31.74039        -0.35485
C         19.50102        31.06000        -0.58091
C         20.71475        33.16216        -0.00731
C         19.43278        33.80644         0.25235
C         20.68613        35.90746         0.90244
C         19.38155        35.31193         0.45294
C         20.65753        37.39109         0.96523
C         19.41561        38.13521         1.21499
C         20.69836        40.25282         1.29304
C         19.43283        39.52637         1.23302
C         20.69328        41.70619         1.40021
C         19.41203        42.40552         1.54208
C         20.69329        44.61003         1.16621
C         19.40588        43.92698         1.38243
C         20.68622        46.03308         0.94067
C         19.46072        46.71461         0.72509
C         20.66984        48.84209         0.68232
C         19.44874        48.11122         0.64203
C         20.64404        50.26775         0.59193
C         19.40503        50.97474         0.35796
C         20.60939        53.11064         0.31738
C         19.42739        52.38183         0.07605
C         20.75591        54.44653        -0.43120
C         19.45871        55.23383        -0.43550
C         20.68631        57.38811        -0.82405
C         19.50771        56.60475        -0.77509
C         20.57735        58.67603        -1.38891
C         23.42094         3.35195         0.43713
C         22.12518         3.97737         0.60004
C         22.90749         6.12233         1.50077
C         21.85635         5.26435         0.99131
C         23.03391         7.44139         1.20746
C         21.89003         8.12910         0.49095
C         22.96535        10.39636         1.24855
C         21.73923         9.59051         0.87868
C         22.99847        11.77973         0.71646
C         21.87332        12.38431         0.14721
C         23.13329        14.46552        -0.32195
C         21.91029        13.79671        -0.25213
C         23.18711        15.92958        -0.41765
C         21.89237        16.67024        -0.50325
C         23.19165        18.72522        -1.33710
C         21.89481        18.03867        -1.08971
C         23.19642        20.22848        -1.37920
C         22.00054        20.89938        -0.72662
C         23.25864        23.09441        -0.86659
C         21.98665        22.39311        -0.91899
C         23.27186        24.52567        -0.72973
C         22.00555        25.24033        -0.50439
C         23.13863        27.41729        -0.60612
C         21.97708        26.71654        -0.53615
C         23.19185        28.83868        -0.09821
C         21.93937        29.62585        -0.38343
C         23.21880        31.74442        -0.40889
C         21.94419        30.99441        -0.37363
C         23.20768        33.23017        -0.04192
C         21.89639        33.84667         0.28835
C         23.15709        35.84923         1.23060
C         21.87120        35.21531         0.78479
C         23.16916        37.33942         1.49690
C         21.96328        38.13567         1.09972
C         23.16938        40.30152         1.59924
C         21.89661        39.56420         1.42989
C         23.13710        41.71724         1.11580
C         21.86518        42.45289         1.35772
C         23.17509        44.62521         1.53892
C         21.87794        43.88747         1.29727
C         23.15162        46.07005         1.10809
C         21.92743        46.75858         0.96480
C         23.16596        48.91673         0.80140
C         21.92629        48.18119         0.80899
C         23.15284        50.35218         0.71823
C         21.85504        50.99174         0.72661
C         23.54363        53.40658         0.43657
C         21.69209        52.39946         0.84699
C         23.30059        54.59879        -0.20897
C         22.00142        55.30759        -0.05446
C         23.31522        57.36304        -0.75213
C         21.98342        56.77387        -0.35505
C         23.47582        58.75189        -0.81550
C         21.59525        59.66882        -1.33212
C         23.16486        61.33775        -2.25761
C         21.87889        60.70654        -2.21106
C         24.67236         3.88958         0.59537
C         25.81301         6.14754         0.89111
C         24.89170         5.18135         1.20832
C         25.67557         7.53578         1.30380
C         24.31485         8.15241         1.54091
C         25.54086        10.44248         1.60977
C         24.26008         9.65362         1.56306
C         25.51557        11.89252         1.27314
C         24.32479        12.39578         0.51786
C         25.69250        14.53150        -0.06606
C         24.40432        13.75260        -0.13747
C         25.72388        15.98219        -0.43150
C         24.44276        16.65321        -0.71505
C         25.59034        18.79604        -0.62914
C         24.43705        18.02289        -0.94608
C         25.76875        20.19714        -1.11324
C         24.49082        20.96557        -1.31858
C         25.73210        23.11736        -1.18396
C         24.49752        22.41966        -1.01739
C         25.64332        24.57254        -1.41209
C         24.41386        25.25903        -1.00790
C         25.70834        27.49104        -1.00751
C         24.37469        26.72479        -1.04555
C         25.67429        28.87254        -0.48799
C         24.48455        29.57455        -0.35086
C         25.66272        31.71680        -0.03856
C         24.48266        31.01403        -0.23798
C         25.68676        33.14186         0.24933
C         24.48403        33.83175         0.37335
C         25.75866        35.92396         1.03255
C         24.48668        35.16238         1.01062
C         25.79316        37.25666         1.79825
C         24.46770        38.05283         1.76544
C         25.68282        40.25424         1.08566
C         24.47507        39.57044         1.65710
C         25.71587        41.73068         1.00627
C         24.42513        42.45310         0.93206
C         25.60692        44.60814         0.98082
C         24.42086        43.91476         1.07940
C         25.60222        46.04151         1.02184
C         24.38101        46.77058         1.01057
C         25.65214        48.91231         0.76384
C         24.39998        48.20395         0.86762
C         25.62923        50.29686         0.41008
C         24.39062        51.04251         0.41737
C         25.61579        52.89260        -0.78054
C         24.49430        52.42127         0.05512
C         25.56638        54.29546        -1.32325
C         24.31955        55.11923        -1.13492
C         25.62280        57.19431        -1.63410
C         24.40482        56.58750        -1.19146
C         25.65256        58.59613        -1.83987
C         24.54081        59.39098        -1.49949
C         24.37661        60.76852        -1.92297
C         26.81580         8.32128         1.34048
C         28.02808        10.47672         1.41546
C         26.84968         9.74991         1.52129
C         28.09549        11.91982         1.31919
C         26.81432        12.66102         1.26332
C         28.13011        14.80851         0.66577
C         26.83906        14.07271         0.77452
C         28.08930        16.20413         0.50923
C         26.83214        16.78978         0.11615
C         28.41890        19.27965         0.22990
C         26.55844        18.15751         0.16390
C         28.34857        20.46082        -0.50021
C         27.04969        20.99282        -1.00276
C         28.24706        23.13963        -1.30498
C         26.99590        22.46728        -1.17315
C         28.24424        24.59815        -1.54891
C         26.96007        25.37501        -1.50101
C         28.20261        27.41974        -0.71775
C         26.97143        26.75160        -1.02045
C         28.13388        28.82047        -0.29537
C         26.93265        29.50135        -0.20200
C         28.10159        31.61853         0.65483
C         26.85493        30.90205         0.27080
C         28.13414        33.07398         0.42414
C         26.96123        33.84598         0.41095
C         28.20213        36.04770         0.86888
C         26.95196        35.29867         0.67990
C         28.21206        37.42530         1.31756
C         27.02341        38.08479         1.47762
C         28.24342        40.30403         1.02999
C         26.98787        39.52117         1.11518
C         28.16813        41.68778         0.74847
C         26.90660        42.39245         0.74949
C         28.14321        44.64134         0.52254
C         26.85329        43.87833         0.58547
C         28.16600        46.05084         1.03596
C         26.86042        46.77885         1.13281
C         28.14633        48.89225         0.76596
C         26.89728        48.22448         0.89451
C         28.04500        50.29849         0.63253
C         26.87996        50.96753         0.24211
C         28.19281        52.95473        -1.01765
C         26.95552        52.20763        -0.58246
C         28.05118        54.27325        -1.50849
C         26.83778        55.01047        -1.56315
C         26.79770        56.38342        -1.82337
C         29.27124        12.62007         1.10961
C         30.56495        14.71607         0.73381
C         29.34388        14.05916         0.87777
C         30.65681        16.18066         0.73776
C         29.35258        17.00052         0.70968
C         30.73471        18.99041        -0.20669
C         29.51561        18.41678         0.23497
C         30.77944        20.33008        -0.68075
C         29.57367        21.06257        -0.87081
C         30.74705        23.20892        -1.14839
C         29.50999        22.48190        -1.19547
C         30.77348        24.61592        -1.12892
C         29.51662        25.36744        -1.34337
C         30.73077        27.53734        -1.11267
C         29.43855        26.77840        -0.91201
C         30.69211        28.92931        -0.49170
C         29.40596        29.56440        -0.08170
C         30.69470        31.61387         0.82208
C         29.40321        30.86324         0.68915
C         30.67090        33.08318         0.53348
C         29.43523        33.59169         0.13223
C         30.71562        36.13871         0.67592
C         29.41340        35.63122         0.33721
C         30.76629        37.47750         1.06890
C         29.51566        38.17701         1.53801
C         30.72674        40.33875         0.99768
C         29.48646        39.63609         1.12837
C         30.72477        41.74070         0.79434
C         29.44060        42.39225         0.49823
C         30.69005        44.62097         0.76772
C         29.45278        43.90971         0.40334
C         30.57873        45.99510         1.05705
C         29.42774        46.81014         0.85816
C         30.63748        48.81158         0.01377
C         29.45462        48.20901         0.66695
C         30.55112        50.04074        -0.77347
C         29.78339        51.13275        -0.44483
C         29.44362        52.31596        -1.16744
C         31.90481        16.88162         0.36939
C         33.18984        18.94489        -0.04825
C         31.95922        18.21680        -0.00274
C         33.30079        20.28989        -0.42909
C         32.09552        20.93272        -1.16907
C         33.13276        23.20656        -1.41601
C         32.01772        22.47394        -1.14354
C         33.28511        24.69510        -1.43001
C         31.99234        25.36783        -1.03260
C         33.25417        27.44042        -0.67332
C         31.99510        26.73694        -0.82726
C         33.22838        28.78933        -0.37417
C         31.97856        29.46596         0.04072
C         33.23258        31.67840         0.52245
C         31.98672        30.85654         0.59421
C         33.17226        33.16830         0.56533
C         31.86610        33.89905         0.50584
C         33.20818        36.00377         0.85706
C         31.88920        35.30390         0.53901
C         33.17884        37.51065         0.67002
C         31.99379        38.20946         0.98315
C         33.20802        40.34253         0.75917
C         31.98490        39.63364         0.95367
C         33.17914        41.77281         0.73190
C         31.94199        42.48721         0.73225
C         33.19741        44.63094         0.47257
C         31.94351        43.93528         0.70779
C         33.25780        46.00480         0.03307
C         32.31254        46.95136         0.42678
C         31.85068        48.12670        -0.21936
C         34.53932        20.91805        -0.13176
C         35.76977        23.14083        -0.08867
C         34.93522        22.18363        -0.63479
C         35.73451        24.56908        -0.40859
C         34.54166        25.28391        -0.77445
C         35.72922        27.38955        -0.32732
C         34.53431        26.69621        -0.65425
C         35.70461        28.82649        -0.03351
C         34.46825        29.58623        -0.34305
C         35.73951        31.79897         0.11206
C         34.46014        31.04787        -0.06166
C         35.69355        33.16749         0.04534
C         34.38952        33.87563         0.04869
C         35.65049        36.10990         0.03620
C         34.38631        35.35006         0.16437
C         35.48871        37.44868        -0.12172
C         34.35820        38.21829         0.36639
C         35.70526        40.36506         0.65664
C         34.44104        39.63388         0.54368
C         35.64076        41.76218         0.72776
C         34.41691        42.48444         0.63769
C         34.39203        43.88075         0.44651
C         36.91404        25.29732        -0.13207
C         38.19694        27.45287        -0.00421
C         36.96171        26.70753        -0.15003
C         38.24958        28.83764         0.08086
C         36.98281        29.58537         0.23765
C         38.19608        31.72698         0.03900
C         36.99167        31.06113         0.12241
C         38.19362        33.19848        -0.13710
C         36.95145        33.98574         0.26070
C         38.23692        36.13854         0.24663
C         36.96554        35.42568        -0.33255
C         38.28376        37.51098         0.70081
C         37.34995        38.49992         0.34283
C         36.99642        39.73808         0.89573
C         39.46123        29.61242         0.08835
C         40.67186        31.78312         0.25030
C         39.45131        31.00384         0.09187
C         40.69379        33.14053         0.29907
C         39.49243        33.95518         0.01601
C         39.37998        35.37485         0.41054
O         26.16074        25.07113        -2.68495
O         26.10855        51.94682        -1.77171
O         38.90488        33.65146        -1.30978
O         24.91996        27.34739        -2.25072
O         22.53795        16.57147         0.80124
O         10.95471        29.06793        -2.03300
O         14.45482        25.62583         1.07228
O         29.01205        25.06677        -2.70761
O         29.52630        43.11344        -0.80148
O         21.42647        37.87170        -0.23518
O         14.93421        43.81901        -0.51904
O         22.48610        59.54332        -0.23504
O         34.41267        30.56950        -1.45726
O         27.20878        31.12355         1.69984
O         31.67018        46.63047         1.64954
O         20.90983        54.03175        -1.74612
O         27.31062        18.95696         1.01056
O         19.32843        43.29672         2.70755
O         30.01743        31.04874         1.99583
O         27.59888        46.27758         2.35689
O         34.06882        34.70262        -1.12414
O         24.60540        12.53175        -0.92802
O         16.19965        32.95200         1.57336
O         10.41709        32.82406        -1.93919
O         36.14790        29.10864         1.35125
O         19.52134        12.85367        -1.85190
O         16.34808        29.47634        -2.63840
O         23.92809        40.19070         2.85942
O         27.34591        44.44630        -0.68417
O         23.75955        20.75787        -2.59624
O         15.56911        36.40345         2.45466
O         16.43277        30.75651         0.60838
O         23.78100        35.12181         2.33490
O         29.17540        51.07839         0.83149
O         23.25322        32.76866        -1.44938
O         30.02085        16.74891         1.96835
O         24.57368        54.42216        -2.39864
O         21.15716        24.78210         0.61886
O         26.60203        13.79341         2.19173
O         33.48217        32.40362         1.77341
O         22.70148        53.09359         1.51692
O         14.74595        18.24714        -1.93088
O         21.88843        56.25363         1.03640
O         23.94689         5.49706         2.20423
O         30.04122        29.87656        -1.40866
O         32.05562        29.70455         1.49334
O         18.40206        36.35765         2.57824
O          9.17338        35.10247        -1.11724
O         21.94877        10.04095         2.24158
O         26.67856        20.27918        -2.26456
O         36.52356        38.14912        -0.74752
O         20.47370        28.10780         0.90982
O         25.32160        11.46374         2.65079
O         23.62699        41.94249        -0.24115
O         19.13563        24.86411        -2.58473
O         16.67524        25.86445        -2.72808
O         23.58113        37.64986         2.85559
O         29.41978        34.70988        -0.71213
O         34.28607        22.53817        -1.84235
O         14.19049        33.95621        -1.46541
O         17.46280        16.51650         0.69909
O         24.18838         8.87830         2.80657
O         26.16787        39.61881        -0.14214
O         26.14924        14.93126        -1.39187
O         22.46696        18.09720        -2.44590
O         18.72638        27.55262        -3.06637
H         18.37738        26.72788        -3.48369
O         18.40406        45.70205        -1.11964
H         19.27764        45.27830        -1.25777
O         32.23411        20.53579        -2.55871
H         33.03912        20.98049        -2.90331
O         22.27259        20.70214         0.70683
H         21.56812        21.15566         1.21788
O         13.01423        44.98393         2.45860
H         13.37051        44.22137         2.97765
O         23.29798        44.65219         3.02150
H         22.47250        45.04642         3.37733
O         29.66252        38.18283         3.01373
H         28.76310        38.18497         3.40916
O         37.01962        34.19098         1.70523
H         36.70921        33.37931         2.15981
O         30.80881        27.72413        -2.55470
H         30.24632        28.50194        -2.77749
O         33.44823        35.80458         2.28497
H         32.69863        36.19841         2.78010
O         13.71320        36.54053        -0.94377
H         13.80489        35.73540        -1.51635
O         33.45695        25.03715        -2.84998
H         34.13649        24.42709        -3.21055
O         22.21995         8.17001        -0.93242
H         22.07956         7.27410        -1.30525
O         25.98843        36.85485         3.18354
H         25.11744        36.51212         3.50044
O         23.18220        28.67954         1.36923
H         22.26841        28.38301         1.61439
O         19.15220        35.83889        -0.90222
H         20.01901        35.97330        -1.34209
O         17.95674        49.02022         2.24492
H         18.71430        49.54716         2.57944
O         19.80403         5.25473        -0.23646
H         18.92048         5.66473        -0.33048
O         12.17803        31.27200        -2.71447
H         11.71507        32.10191        -2.98342
O         18.24473        32.36949        -2.14497
H         19.08909        32.83948        -2.31223
O         10.21071        29.77993         1.48844
H          9.46232        30.03505         2.06910
O         37.05610        35.36035        -1.75609
H         36.94584        36.26977        -2.10512
O          9.81475        38.16109         2.96361
H         10.59117        38.74404         3.10655
O         16.63613        24.56801         0.73146
H         15.95274        24.92815         1.37838
O         14.37072        42.70021         2.93916
H         14.35218        41.82298         3.37809
H          5.06458        31.06421         1.03206
H          4.98770        33.52800         1.19875
H          7.53842        26.90187         0.38527
H          6.27697        29.01208         0.64956
H          6.16218        35.64122         1.35454
H          7.39608        37.76886         1.78532
H          9.98290        22.63435        -0.01054
H          8.76635        24.77212         0.20221
H          8.56951        39.99481         0.82342
H          9.81275        42.16321         0.46879
H         12.36246        18.57816         0.40345
H         11.19460        20.53172        -0.09496
H         11.00378        44.32487         0.40458
H         12.29784        46.54770         0.16947
H         14.75288        13.92517        -0.31559
H         13.52018        15.96920         0.19309
H         13.57007        48.61826        -0.25293
H         14.83463        50.75066        -0.37594
H         17.19630         9.64542         0.04062
H         15.96921        11.83214        -0.24941
H         16.07795        52.87373        -0.58318
H         17.30842        55.05044        -0.55003
H         19.91416         5.71424         1.79956
H         18.43555         7.56643         0.47889
H         18.56736        57.09265        -1.08235
H         19.65081        58.91295        -1.93625
H         23.37795         2.35194        -0.02328
H         21.27657         3.39139         0.21492
H         23.20619        62.31279        -2.76991
H         21.12977        61.00658        -2.95853
H         25.53785         3.33418         0.20237
H         26.66283         5.88965         0.24050
H         26.53455        59.05652        -2.30850
H         25.28976        61.32478        -2.18661
H         27.78349         7.82185         1.17465
H         28.97492         9.92085         1.32777
H         28.97264        54.79585        -1.80953
H         27.73825        56.89926        -2.07079
H         30.22562        12.07145         1.14165
H         31.49814        14.13369         0.68819
H         31.17793        50.09254        -1.67650
H         30.17894        52.76723        -1.85158
H         32.84680        16.31695         0.45558
H         34.09197        18.43793         0.33024
H         34.04274        46.27677        -0.68854
H         32.51064        48.54964        -0.99290
H         35.19809        20.41442         0.59402
H         36.43472        22.84592         0.73785
H         36.57810        42.33403         0.79976
H         35.34265        44.40885         0.28027
H         37.82755        24.73676         0.11655
H         39.13959        26.88466        -0.03372
H         39.09107        37.77703         1.40240
H         37.70570        40.27791         1.54244
H         40.42553        29.08143         0.10051
H         41.60581        31.22447         0.41506
H         41.63667        33.66318         0.52176
H         40.27945        35.85017         0.83592
