         282
 CSIRO Nanostructure Databank - Neutral Graphene Oxide Data Set
C        -11.26236         0.57363         0.58195
C        -10.31073         1.62551         0.94809
C         -8.25515         0.76936         1.43426
C         -7.18736         1.59551         0.76178
C         -6.27214         0.64755        -0.07388
C         -5.03728         1.41349        -0.53134
C         -3.88159         0.75642        -0.79406
C         -2.61378         1.41869        -1.28826
C         -1.37647         0.76887        -0.56497
C         -0.13219         1.49185        -1.01548
C          1.13493         0.75395        -1.26030
C          2.40783         1.54960        -1.25239
C          3.70295         0.82276        -1.32535
C          4.91579         1.61135        -0.89977
C          6.09778         0.87968        -0.39066
C          7.44519         1.54471        -0.51439
C          8.51788         0.91671         0.30076
C          9.79472         1.60274         0.51111
C         11.03425         0.83860         0.72715
C        -10.12993         2.80487         0.30353
C         -8.85703         3.62340         0.55196
C         -7.66859         2.80642        -0.10323
C         -6.41106         3.62853        -0.36179
C         -5.16826         2.89664        -0.88899
C         -3.85299         3.61543        -0.48938
C         -2.62826         2.95422        -1.11583
C         -1.35564         3.73159        -0.96827
C         -0.10371         2.95593        -0.69293
C          1.17659         3.69117        -0.51625
C          2.49149         2.90067        -0.50714
C          3.68117         3.75724        -0.95603
C          4.97550         3.08252        -1.25483
C          6.27361         3.89727        -1.08886
C          7.51650         3.00889        -0.81443
C          8.72309         3.78718        -0.27443
C          9.86852         2.93595         0.22227
C         -8.95160         5.00196        -0.10716
C         -7.64605         5.76061        -0.02634
C         -6.42079         4.99027        -0.28086
C         -5.13327         5.73749        -0.20569
C         -3.88357         5.13171        -0.81395
C         -2.61544         5.83958        -0.34486
C         -1.34379         5.14062        -0.47496
C         -0.14040         5.81997        -0.36703
C          1.12788         5.16618        -0.90851
C          2.42708         5.90655        -0.57987
C          3.69504         5.13694        -0.40135
C          4.81717         5.64942         0.18330
C          6.15808         4.94972         0.08032
C          7.35633         5.86167         0.16513
C          8.13713         4.74094         0.79264
C         -7.65341         7.11034         0.11640
C         -6.44713         7.96230        -0.19020
C         -5.15598         7.19824         0.03085
C         -3.88393         7.99981        -0.15122
C         -2.64492         7.15488         0.01963
C         -1.41120         7.81015         0.59387
C         -0.12552         7.19640         0.08108
C          1.03643         7.91621         0.23123
C          2.34912         7.27329        -0.00486
C          3.51183         7.80890         0.75672
C          4.81097         7.04240         0.73299
C          6.08540         7.86762         0.75433
C          7.36657         7.17805         0.45618
C         -6.37918         9.34336         0.42667
C         -5.21988         9.93694         0.74980
C         -3.91113         9.17996         0.85184
C         -2.65351         9.98354         0.64515
C         -1.44206         9.33026         0.51133
C         -0.21044        10.03440         0.45804
C          1.03990         9.35910         0.46526
C          2.25744        10.03671         0.59264
C          3.49864         9.31570         0.92847
C          4.80432        10.00183         0.86647
C          5.97347         9.34084         0.72693
C        -11.16731        -0.78594         0.67460
C        -10.11550        -1.65077         1.22396
C         -8.21243        -0.56174         1.61307
C         -7.08102        -1.43773         1.25812
C         -5.92313        -0.67018         0.63936
C         -4.83818        -1.43960        -0.01444
C         -3.84443        -0.75268        -0.94299
C         -2.47219        -1.40673        -0.75721
C         -1.28496        -0.73615        -0.77774
C          0.01729        -1.43912        -0.87209
C          1.18692        -0.73123        -1.13131
C          2.44788        -1.44069        -1.47963
C          3.76912        -0.68701        -1.44875
C          5.05192        -1.39963        -1.10654
C          5.95248        -0.63677        -0.11958
C          7.32054        -1.24510         0.11582
C          8.28214        -0.33073         0.78328
C         10.14149        -1.45597         1.11994
C         11.21978        -0.50723         0.85923
C         -9.76619        -2.86422         0.72900
C         -8.59061        -3.69308         1.28011
C         -7.21761        -2.94011         1.16789
C         -6.02401        -3.67183         0.58798
C         -5.10581        -2.89697        -0.34335
C         -3.77240        -3.61245        -0.63051
C         -2.48703        -2.85262        -0.42752
C         -1.18070        -3.58208        -0.26925
C          0.08126        -2.88816        -0.67025
C          1.26648        -3.60370        -0.72024
C          2.49404        -2.96097        -1.23440
C          3.82216        -3.70087        -1.14577
C          5.19663        -2.94916        -1.12929
C          6.17623        -3.48496        -0.06193
C          7.46697        -2.72571         0.14259
C          8.57587        -3.38797         1.00606
C          9.93258        -2.74160         0.74660
C         -8.60034        -5.06453         0.54958
C         -7.33321        -5.90842         0.56693
C         -6.06018        -5.14430         0.38070
C         -5.06629        -5.87140        -0.53241
C         -3.75274        -5.10065        -0.75671
C         -2.39949        -5.82753        -0.88228
C         -1.21421        -5.11507        -0.14388
C          0.09917        -5.85813        -0.51861
C          1.31446        -5.00794        -0.10739
C          2.58057        -5.82132        -0.30421
C          3.82692        -5.15293        -0.75923
C          5.12295        -5.81037        -0.35635
C          6.21074        -4.95177         0.21188
C          7.50556        -5.61533         0.54539
C          8.60767        -4.88631         0.80772
C         -7.37966        -7.25426         0.39485
C         -6.19353        -8.11388        -0.06739
C         -4.92276        -7.26067         0.16559
C         -3.59919        -7.99760        -0.05738
C         -2.34811        -7.26110        -0.37051
C         -1.00814        -7.95884        -0.61059
C          0.11806        -7.23242         0.09772
C          1.31646        -7.86761         0.27200
C          2.57324        -7.14073         0.05534
C          3.80762        -8.03027        -0.05601
C          5.11221        -7.24475         0.03703
C          6.22285        -7.73143         0.97554
C          7.57052        -7.13957         0.52596
C         -5.94886        -9.42994         0.65604
C         -4.78153       -10.08017         0.50996
C         -3.64543        -9.49927        -0.31496
C         -2.27874       -10.09648        -0.06730
C         -1.07674        -9.42592        -0.23689
C          0.13641       -10.05676         0.15931
C          1.33984        -9.33675         0.40263
C          2.51583        -9.96969         0.76564
C          3.73625        -9.13627         1.03222
C          5.03695        -9.90073         1.06459
C          6.20463        -9.24414         1.02687
O          3.09915         1.41727        -2.51588
O          6.80642         4.21757         1.24673
O         -0.50902        -7.69353        -1.97700
O          5.60114        -6.83689        -1.28221
O          4.81003        -0.94347        -2.45753
O          3.81641        -4.75113        -2.16474
O         -9.40101         1.37556         2.00669
O          0.99051         5.08906        -2.39341
O         -8.62592         3.88732         1.93070
H         -8.74424         3.04603         2.43040
O         -6.44486        -8.46948        -1.43303
H         -6.36523        -7.65818        -1.98529
O         -6.35153         2.18341         1.79312
H         -6.08619         1.48274         2.42627
O          9.07213        -0.82674         1.81216
O          2.77027         2.56037         0.86684
H          1.92159         2.60514         1.36987
O         -2.01369         3.59358        -2.28057
O          0.25277         1.19838        -2.38028
O          8.59656        -7.60300         1.39810
H          8.28046        -7.44297         2.31346
O          5.64747        -3.99045         1.19560
O          7.81015         2.03441        -1.85199
O          4.13942         3.58930        -2.33105
O         -9.31475        -1.14106         2.27842
O         -6.76738        -2.30266         2.40288
O          7.89627        -1.96944        -1.02471
O          2.66443         7.09487        -1.44148
O         -1.42624         7.47339         2.03142
H         -0.64954         7.90671         2.44719
O          0.15555        -6.28508        -1.91701
O          3.22561         8.36747         2.05437
O          3.76807        -8.69790        -1.32712
H          4.20224        -8.09918        -1.97832
O          9.24205         4.63171        -1.32370
H          9.21502         4.11827        -2.15879
O         -5.39262        -4.55204         1.54964
O         -1.37282        -5.39548         1.26724
H         -1.90271        -4.65870         1.66158
O         -3.86157        -4.22476        -1.94466
O         -4.66884        -0.91189         1.34043
O          0.37429         3.32954         0.64620
O         -5.02000         6.28717         1.15797
O         -8.80992        -3.96199         2.66605
H         -8.45919        -3.19380         3.17240
O         -1.49287         0.99479         0.84987
H         -2.27688         0.51421         1.19305
O         -4.20167        -1.01284        -2.32711
H         -3.70740        -0.35385        -2.87613
O         -6.53892         8.19875        -1.63586
H         -5.72331         8.69661        -1.88840
O          2.30350        -2.38211        -2.56894
O         -3.67243         3.46413         0.92898
H         -4.45870         3.82917         1.39247
O         -1.86424        -3.00577         0.90269
O          0.49806         6.36936        -2.85790
H          1.29672         6.95309        -2.74460
O         -5.67195        -6.01329        -1.83095
H         -5.57912        -5.13771        -2.27932
O          5.21453         1.58059         0.54819
O         -3.90203         8.66178         2.20197
H         -3.09121         8.10815         2.33041
O         -9.27099         4.82765        -1.50488
H         -9.15573         5.69052        -1.95574
O          5.53063         7.23505         1.97655
O         -8.84254        -4.79570        -0.84483
H         -8.79040        -5.64178        -1.33579
O         -8.18393         2.35120        -1.37291
H         -8.54800         3.15161        -1.82881
O         -4.01224         5.34040        -2.24664
H         -3.20785         4.93672        -2.66468
O         -5.00844        -7.05094         1.58974
H         -4.10922        -6.83786         1.92998
O         -2.68838        -7.55802         1.01187
O          5.24479        -0.82024         1.13248
H          4.98988         0.07496         1.47044
O          6.51227         4.61198        -2.30396
H          5.70291         4.53696        -2.86196
O         -3.84149         8.55842        -1.49437
H         -3.67686         7.81769        -2.11921
O         -5.27969         2.92184        -2.33363
H         -5.12843         3.85445        -2.62533
O          5.86176        -3.27340        -2.35180
H          5.40920        -2.79288        -3.08034
O         -6.97123         0.12406        -1.21995
H         -7.30383         0.88858        -1.75431
O          8.19642        -3.18137         2.38563
H          7.28346        -3.53428         2.49194
O         -3.94618        -9.70672        -1.72089
H         -3.20526        -9.35093        -2.25512
O         -2.51027         1.10662        -2.68913
H         -1.92178         1.77853        -3.10746
O          5.98854        -7.21057         2.30290
H          5.16049        -7.63207         2.64698
O          1.23702        -4.80553         1.33129
H          0.30471        -4.97148         1.62945
O          3.57260        -8.48837         2.33363
H          2.69966        -8.03905         2.34446
O         -2.17016        -5.93834        -2.28865
H         -2.53710        -5.13903        -2.73115
O         -5.88885        -2.88393        -1.55991
H         -5.46421        -2.25623        -2.19723
H         12.25031        -0.89325         0.80732
H         11.94728         1.44753         0.61518
H         10.84369         3.44535         0.26985
H          8.81268         4.98329         1.64273
H          8.29991         7.66541         0.78037
H          6.90528         9.91075         0.59305
H          4.79401        11.10140         0.81633
H          2.26224        11.13638         0.62993
H         -0.22446        11.13366         0.49533
H         -2.67985        11.08427         0.67571
H         -5.22529        10.97884         1.10833
H         -7.31407         9.92609         0.44413
H         -8.61477         7.62639         0.27340
H         -9.76942         5.59780         0.38335
H        -10.77924         3.08751        -0.53805
H        -12.12703         0.94732         0.00747
H        -11.97136        -1.34599         0.16709
H        -10.34770        -3.29207        -0.10077
H         -9.45822        -5.66241         0.96572
H         -8.36198        -7.75574         0.44259
H         -6.75415        -9.87139         1.26337
H         -4.61929       -11.05031         1.00583
H         -2.23355       -11.14702         0.26403
H          0.12058       -11.13678         0.37171
H          2.55906       -11.06653         0.84317
H          5.00507       -10.99994         1.11563
H          7.16342        -9.78300         1.06456
H          7.81428        -7.49398        -0.50789
H          9.54154        -5.41844         1.04871
H         10.68865        -3.29884         0.17661
