         732
 CSIRO Nanostructure Databank - Neutral Graphene Oxide Data Set
C         22.82986        24.60316         1.04419
C         21.64008        25.32502         0.98634
C         22.87213        27.41566         0.76562
C         21.65794        26.71228         0.83254
C         22.90559        28.85740         0.55579
C         21.70218        29.61677         0.48768
C         22.94268        31.67778         0.09211
C         21.71948        30.97553         0.27872
C         22.97986        33.07649        -0.22456
C         21.77043        33.86607        -0.26227
C         22.99941        35.93348        -0.74157
C         21.79005        35.22063        -0.44464
C         23.03099        37.32549        -0.83033
C         21.82038        38.12580        -0.69297
C         23.10597        40.27058        -0.64633
C         21.83537        39.47284        -0.66344
C         23.10563        41.50051        -1.58912
C         21.85455        42.32583        -1.53529
C         23.09156        44.42885        -1.21555
C         21.86946        43.66903        -1.41976
C         23.07757        45.81842        -1.09640
C         21.89415        46.59786        -1.31117
C         23.17443        48.67351        -1.20204
C         21.93860        47.96866        -1.34787
C         25.35666        23.10577         1.00132
C         25.32316        24.51483         0.98508
C         24.07384        25.25788         0.98056
C         25.34374        27.38296         0.88016
C         24.10163        26.68735         0.87540
C         25.37924        28.80575         0.63327
C         24.13592        29.52717         0.41016
C         25.39783        31.63021        -0.01460
C         24.16446        30.94352         0.15819
C         25.43304        33.00616        -0.31759
C         24.21011        33.71219        -0.46994
C         25.51752        35.79125        -1.19172
C         24.17304        35.05807        -1.16416
C         25.52633        37.29529        -1.23422
C         24.26864        38.05000        -1.03945
C         25.56520        40.13880        -1.19454
C         24.32389        39.43264        -0.98030
C         25.58057        41.56518        -1.24367
C         24.35879        42.30223        -1.29970
C         25.58785        44.41794        -1.01666
C         24.34167        43.69095        -1.15101
C         25.59625        45.81656        -0.87431
C         24.30610        46.54017        -0.58032
C         25.61642        48.71849        -0.77627
C         24.34470        48.01653        -0.91506
C         25.67499        50.11403        -0.66489
C         27.79278        23.07584         0.91377
C         26.56155        22.40675         0.94054
C         27.79760        24.50533         0.99542
C         26.55977        25.22061         0.96880
C         27.81293        27.33241         1.03060
C         26.57754        26.65195         0.97449
C         27.79679        28.81924         1.25942
C         26.59135        29.48235         0.62347
C         27.83685        31.67299         0.47904
C         26.68299        30.83963        -0.02576
C         27.90544        33.07879         0.00835
C         26.71379        33.73342        -0.39219
C         27.96584        35.84746        -0.61230
C         26.75170        35.10752        -0.72781
C         28.01607        37.29423        -0.84441
C         26.79863        38.02512        -1.05525
C         28.06868        40.11450        -1.59606
C         26.79027        39.40941        -1.22200
C         28.06425        41.58969        -1.27760
C         26.82935        42.28056        -1.19705
C         28.06216        44.40738        -1.04332
C         26.82611        43.70071        -1.08852
C         28.05666        45.83098        -0.94736
C         26.82242        46.53376        -0.86447
C         28.07610        48.66266        -0.68281
C         26.83522        47.97254        -0.76467
C         28.09357        50.07389        -0.48003
C         26.89563        50.77982        -0.48147
C         30.27975        20.36635         0.07530
C         29.07294        21.02200         0.29864
C         30.28740        23.03976         0.89343
C         29.05655        22.36414         0.72385
C         30.28108        24.45279         1.41771
C         29.02407        25.21236         1.08203
C         30.30720        27.33582         1.09894
C         29.03854        26.62191         1.07149
C         30.29326        28.77402         0.93698
C         29.11368        29.47890         0.92925
C         30.37860        31.68012         0.78641
C         29.09493        30.95668         0.86065
C         30.37378        33.09914         0.48555
C         29.13204        33.76936         0.05587
C         30.43319        35.87304        -0.13723
C         29.14440        35.15100        -0.25551
C         30.47155        37.34809        -0.38495
C         29.22068        38.02059        -0.75296
C         30.51245        40.09873        -1.07286
C         29.30389        39.41451        -1.07732
C         30.55288        41.52751        -1.57019
C         29.27914        42.28419        -1.26110
C         30.54493        44.41526        -1.16089
C         29.29782        43.69521        -1.13913
C         30.53631        45.82383        -1.08866
C         29.30020        46.54466        -0.95937
C         30.54995        48.68776        -1.03986
C         29.31640        47.94758        -0.82651
C         30.54613        50.08106        -0.91178
C         29.42608        50.67760        -0.08774
C         30.54827        52.90538        -0.23157
C         29.46391        52.17399         0.04932
C         32.79289        18.81088         0.11423
C         32.80975        20.31841        -0.03993
C         31.50404        21.00696         0.29924
C         32.78125        23.08435         0.87213
C         31.51468        22.36411         0.71132
C         32.77214        24.50582         1.03632
C         31.55261        25.21672         1.14348
C         32.79666        27.37825         1.49542
C         31.52186        26.63343         1.17310
C         32.84685        28.80695         1.02922
C         31.58112        29.47356         0.54653
C         32.81009        31.63672         1.09480
C         31.55020        30.95180         0.85100
C         32.80551        33.15665         0.88210
C         31.58417        33.76284         0.38083
C         32.96996        35.78937        -0.34678
C         31.65036        35.01851        -0.45000
C         33.00433        37.28402        -0.52713
C         31.74584        38.03785        -0.64113
C         33.02083        40.14386        -0.81798
C         31.76373        39.40826        -0.83887
C         33.01015        41.54458        -0.99888
C         31.81521        42.27766        -1.20930
C         33.01283        44.45909        -1.13825
C         31.79719        43.69672        -1.20397
C         33.01148        45.85096        -1.17228
C         31.76292        46.56793        -1.20531
C         32.99002        48.63883        -1.87516
C         31.74963        47.96170        -1.33258
C         32.98231        50.17794        -1.72008
C         31.70145        50.89230        -1.32762
C         33.06401        53.03163        -0.63579
C         31.73155        52.35146        -0.94948
C         33.08904        54.52074        -0.87943
C         35.23907        18.83220         0.10369
C         33.95444        18.13322         0.16389
C         35.26024        20.20575         0.37049
C         33.96771        20.87459         0.79383
C         35.24394        23.06051         0.83440
C         34.00573        22.38572         0.77958
C         35.26196        24.49644         0.99486
C         34.03438        25.22090         1.05414
C         35.29332        27.32412         1.18845
C         34.06407        26.62412         1.18176
C         35.31736        28.77044         1.20747
C         34.05431        29.48645         1.06862
C         35.30008        31.63883         1.05382
C         34.10144        30.93090         1.00891
C         35.32075        33.09792         1.03344
C         34.10601        33.82915         0.72627
C         35.27136        35.98156         0.67423
C         34.11863        35.15225         0.33488
C         35.36865        37.37033         0.18715
C         34.24598        38.04891        -0.24773
C         35.45301        40.20454        -0.29241
C         34.25214        39.46878        -0.50227
C         35.49593        41.60519        -0.42306
C         34.30345        42.25976        -0.98821
C         35.50858        44.49613        -0.66672
C         34.30903        43.75721        -1.10834
C         35.49626        45.89456        -0.79834
C         34.26209        46.60071        -1.12926
C         35.55604        48.67135        -1.45901
C         34.26374        47.96074        -1.36834
C         35.58435        50.18276        -1.58145
C         34.27730        50.92310        -1.57771
C         35.49686        53.02835        -1.21730
C         34.30683        52.34942        -1.16989
C         35.50969        54.50224        -1.53887
C         34.21498        55.18740        -1.16411
C         37.63494        16.13452        -0.93119
C         36.47201        16.76115        -0.55409
C         37.66865        18.88801        -0.33422
C         36.44818        18.15163        -0.24508
C         37.66443        20.27965        -0.05776
C         36.47322        20.93710         0.29848
C         37.70683        23.03758         0.71316
C         36.48233        22.36171         0.61027
C         37.73485        24.38576         1.38589
C         36.48711        25.18582         1.13307
C         37.77889        27.30406         1.23480
C         36.52029        26.59380         1.18309
C         37.78335        28.73259         1.25363
C         36.53119        29.46607         1.22171
C         37.76994        31.61808         1.10763
C         36.56319        30.92168         1.12833
C         37.79681        33.06487         1.06965
C         36.53673        33.77907         1.09469
C         37.81482        35.98840         1.05142
C         36.53974        35.24910         1.10774
C         37.86051        37.34206         0.79523
C         36.68589        38.00958         0.18882
C         37.90285        40.27410         0.39489
C         36.73010        39.51209        -0.05955
C         37.86325        41.68571         0.33024
C         36.66768        42.35173        -0.12406
C         37.84975        44.52229         0.09069
C         36.66947        43.78644        -0.23827
C         37.86835        45.90906        -0.21251
C         36.72744        46.60435        -0.66456
C         37.95036        48.75891        -0.83233
C         36.78369        48.01403        -0.97291
C         37.96634        50.20338        -0.82173
C         36.78862        50.91587        -1.14014
C         37.93666        53.04267        -0.71119
C         36.76686        52.32504        -1.08689
C         37.93308        54.49833        -0.74538
C         36.77375        55.21323        -1.11066
C         38.01650        57.29683        -1.04160
C         36.83184        56.61007        -1.24786
C         40.09923        14.79924        -1.77233
C         40.09570        16.17023        -1.42648
C         38.87019        16.84228        -1.02302
C         40.13687        18.94292        -0.72135
C         38.88528        18.21792        -0.71765
C         40.17782        20.30365        -0.32630
C         38.89495        21.09799        -0.34679
C         40.15868        23.02650         0.66683
C         38.93850        22.39520         0.41748
C         40.20492        24.43082         0.98775
C         39.00954        25.14365         1.14681
C         40.24813        27.26500         1.21075
C         39.00330        26.56990         1.21637
C         40.22324        28.69190         1.22173
C         39.01557        29.42651         1.25501
C         40.31253        31.59244         0.90897
C         39.06524        30.92854         1.48351
C         40.24314        33.07969         0.49638
C         39.00568        33.75683         1.05457
C         40.31083        35.98831         1.42586
C         39.02334        35.21096         1.35604
C         40.29484        37.44648         1.17940
C         39.08899        38.10996         0.89420
C         40.28597        40.25685         1.00498
C         39.08894        39.54464         0.74763
C         40.22624        41.72267         1.15218
C         39.02129        42.46617         0.70296
C         40.22923        44.65687         1.14991
C         39.02985        43.85611         0.59155
C         40.29380        46.11325         0.65191
C         39.15739        46.59771        -0.20869
C         40.34126        48.83227         0.00272
C         39.21593        48.06420        -0.56789
C         40.26201        50.18337         0.15239
C         39.10987        50.91716        -0.34854
C         40.27806        53.05684         0.18356
C         39.09605        52.33330        -0.29634
C         40.30476        54.50739         0.02629
C         39.14333        55.20516        -0.46724
C         40.43020        57.33760        -0.44416
C         39.19169        56.61582        -0.65665
C         40.54762        58.71327        -0.74564
C         42.45558        14.89716        -2.28649
C         41.26174        14.17094        -2.19264
C         42.49435        16.24479        -1.93028
C         41.31640        16.90107        -1.49404
C         42.55708        19.03053        -1.07905
C         41.34478        18.29447        -1.08822
C         42.63028        20.31581        -0.49047
C         41.40680        20.93751        -0.10570
C         42.73121        22.95130         0.79633
C         41.41562        22.24970         0.57967
C         42.68333        24.42099         0.98317
C         41.48366        25.12093         1.04482
C         42.72369        27.28190         1.25584
C         41.49255        26.56338         1.19015
C         42.68219        28.70959         1.23195
C         41.46261        29.38981         1.14732
C         42.71625        31.26830         0.31161
C         41.43316        30.80517         0.80614
C         42.73253        33.41787         0.25752
C         41.52192        33.91113         0.72691
C         42.77393        35.99611         1.12562
C         41.56123        35.26716         1.14746
C         42.76945        37.43017         1.22255
C         41.53115        38.14908         1.18789
C         42.77725        40.28983         1.14954
C         41.52378        39.57819         1.15510
C         42.80105        41.70338         1.04965
C         41.55495        42.47313         1.21452
C         42.73101        44.51175         0.51642
C         41.54767        43.90667         0.88405
C         42.74098        45.94047         0.24264
C         41.58248        46.61980         0.09250
C         42.61096        48.70167         1.26857
C         41.36955        47.98908         0.68297
C         42.62287        50.21044         1.04464
C         41.27790        50.89502         1.02056
C         42.53108        53.07294         1.26509
C         41.35307        52.37047         0.72118
C         42.56627        54.57858         1.05869
C         41.45025        55.23883         0.36547
C         42.73019        57.37726         0.44013
C         41.54657        56.64821         0.10727
C         42.80382        58.73857         0.12137
C         41.72765        59.39480        -0.48687
C         44.96529        16.29767        -1.45059
C         43.79823        16.98300        -2.15122
C         45.05137        19.17185        -1.56813
C         43.74686        18.46249        -1.74694
C         45.12076        20.44177        -0.80528
C         43.90761        21.02334        -0.33482
C         45.19887        22.99386         0.33727
C         43.96758        22.31106         0.26126
C         45.25770        24.35173         0.92463
C         43.95072        25.11535         1.22434
C         45.23041        27.24832         1.19477
C         43.99121        26.58538         1.23868
C         45.24417        28.72064         1.37960
C         43.94431        29.48226         1.35037
C         45.17269        31.62181         0.33733
C         43.92476        30.85098         0.76710
C         45.19039        33.13035         0.64945
C         44.01610        33.91740         0.62773
C         45.24864        35.99424         1.09591
C         44.02563        35.30926         0.98752
C         45.24398        37.42462         1.16980
C         44.00059        38.13548         1.18317
C         45.25215        40.25641         1.00806
C         44.01139        39.56462         1.12710
C         45.25454        41.67423         0.83468
C         44.01457        42.38860         0.82674
C         45.22267        44.49532         0.51711
C         44.01070        43.80911         0.59159
C         45.27618        45.96238         0.31987
C         43.97798        46.73619         0.22184
C         45.10862        48.77195         0.98131
C         43.92700        48.10291         0.75709
C         45.06976        50.16190         1.50920
C         43.80114        50.93036         1.29558
C         45.06949        53.11926         1.62277
C         43.80811        52.33969         1.43770
C         44.92427        54.60358         1.84729
C         43.83978        55.29857         1.25321
C         44.89898        57.44701         1.68689
C         43.84552        56.70561         1.11375
C         46.14995        16.91223        -1.33076
C         47.61642        19.05417        -1.61611
C         46.30098        18.34707        -1.70506
C         47.62876        20.56923        -1.37125
C         46.36085        21.09425        -0.68540
C         47.66495        23.10488         0.01297
C         46.40248        22.39678        -0.12853
C         47.66634        24.44662         0.39533
C         46.46079        25.15818         0.69370
C         47.71970        27.26947         0.68101
C         46.46076        26.54996         0.90866
C         47.74657        28.75340         0.73550
C         46.49257        29.49118         1.08897
C         47.61079        31.63275         0.81781
C         46.41820        30.93873         0.81459
C         47.64444        33.07078         0.91679
C         46.43746        33.79446         0.90111
C         47.69428        35.93212         1.10480
C         46.48538        35.24805         1.03648
C         47.71771        37.38380         1.30221
C         46.46507        38.13712         1.16380
C         47.74952        40.23767         0.88151
C         46.49320        39.54319         1.04652
C         47.73086        41.66202         0.70544
C         46.48433        42.36903         0.70561
C         47.68988        44.51017         0.69759
C         46.47695        43.80190         0.64350
C         47.69463        45.95981         1.11187
C         46.43995        46.70990         0.76550
C         47.63788        48.82059         1.10660
C         46.38822        48.08534         0.89981
C         47.64149        50.14912         1.44333
C         46.37297        50.87141         1.75524
C         47.72990        52.98945         2.14442
C         46.40161        52.38632         1.73624
C         47.86663        54.23957         2.77095
C         45.86093        55.40021         2.52258
C         45.85360        56.80127         2.45813
C         50.00722        18.87083        -1.05412
C         48.84389        18.27043        -1.36878
C         50.07491        20.29133        -0.74754
C         48.90788        21.04760        -0.68972
C         50.13677        22.99329         0.17519
C         48.92581        22.40524        -0.19030
C         50.22985        24.38690         0.64795
C         48.92919        25.14981         0.68776
C         50.23424        27.31099         0.22674
C         48.91965        26.61787         0.57631
C         50.21546        28.81870         0.56892
C         48.88791        29.47978         0.03730
C         49.81707        31.78486         0.00052
C         48.82676        30.95122         0.41323
C         50.22758        32.97485         0.81417
C         48.94672        33.74323         1.13400
C         50.25006        35.94085         0.78304
C         48.99253        35.24250         1.17366
C         50.26316        37.33746         0.78322
C         49.04738        38.10952         1.15780
C         50.20325        40.23625         0.58427
C         48.98685        39.55136         0.84868
C         50.18377        41.66070         0.42237
C         48.94227        42.36765         0.52646
C         50.11675        44.52936         0.32252
C         48.93203        43.81723         0.53369
C         50.07541        45.99551         0.20662
C         48.88654        46.74288         0.63276
C         50.13185        48.86556         0.70319
C         48.88930        48.10782         0.80070
C         50.15256        50.22164         1.06015
C         48.95650        50.81300         1.76559
C         50.18019        52.99762         1.84943
C         48.93185        52.32196         1.80224
C         50.23777        54.30702         2.36860
C         49.09990        54.89002         2.90660
C         52.57782        20.28381        -0.76407
C         51.36580        20.88426        -0.45683
C         52.73531        23.02015         0.11488
C         51.38179        22.23323         0.11000
C         52.69299        24.50475         0.22463
C         51.50158        25.14237         0.51505
C         52.76994        27.34407         0.61254
C         51.46616        26.61072         0.88873
C         52.77981        28.78224         0.52218
C         51.55842        29.44840         0.17814
C         52.76544        31.61564         0.00853
C         51.67677        30.76143        -0.26148
C         52.65189        33.06769         0.03801
C         51.43238        33.76559         0.30200
C         52.65612        35.91302         0.20121
C         51.43145        35.18641         0.41724
C         52.66140        37.33788         0.33897
C         51.47562        38.06545         0.54993
C         52.64263        40.26232         0.36666
C         51.45418        39.52677         0.52940
C         52.62054        41.67986         0.15577
C         51.39123        42.36260         0.17686
C         52.64685        44.54762         0.09370
C         51.34672        43.82209        -0.19447
C         52.62869        46.00113         0.50026
C         51.36922        46.75058         0.12650
C         52.57361        48.89042         0.39723
C         51.35604        48.19767         0.42403
C         52.58062        50.29961         0.60611
C         51.37083        50.95274         1.00795
C         52.60585        53.03474         1.22664
C         51.40151        52.33864         1.37102
C         53.79091        21.02415        -0.82759
C         55.02124        23.26440        -0.96204
C         53.86932        22.36810        -0.52999
C         55.21007        24.42664         0.03539
C         53.93299        25.22361         0.17810
C         55.26964        27.30759         0.49803
C         53.95907        26.61276         0.41234
C         55.28356        28.82778         0.60167
C         53.99371        29.53180         0.45800
C         55.19219        31.71342         0.11768
C         53.98780        30.94283         0.26173
C         55.13166        33.06445        -0.17880
C         53.88207        33.79460        -0.09175
C         55.13005        35.94334        -0.25418
C         53.87666        35.21182        -0.04579
C         55.16553        37.37817        -0.10373
C         53.95749        38.03845         0.39011
C         55.15733        40.29993         0.04585
C         53.94240        39.57893         0.44022
C         55.08450        41.71901        -0.02109
C         53.86302        42.41212         0.00960
C         55.11217        44.61910        -0.01062
C         53.84566        43.87086         0.03784
C         55.08708        46.08101        -0.05677
C         53.86194        46.77811         0.11730
C         55.01275        48.93412        -0.09026
C         53.81989        48.17982         0.13476
C         55.00653        50.35898         0.01967
C         53.79182        51.04372         0.45584
C         53.76874        52.41047         0.75752
C         57.50280        23.16575        -1.04579
C         56.32366        22.52462        -1.14460
C         57.58357        24.59445        -0.76148
C         56.43685        25.26102        -0.31284
C         57.66402        27.39768        -0.24312
C         56.48359        26.64845        -0.02497
C         57.68928        28.84552        -0.05575
C         56.52886        29.53945         0.26308
C         57.75084        31.79505         0.16504
C         56.48745        31.02219         0.32771
C         57.68826        33.17502        -0.38600
C         56.33639        33.76462        -0.76531
C         57.48381        36.01572        -0.98869
C         56.29188        35.26358        -0.58781
C         57.52281        37.47147        -0.79072
C         56.33989        38.13395        -0.34818
C         57.54726        40.28858        -0.57997
C         56.35581        39.58517        -0.23761
C         57.63308        41.73952        -0.32035
C         56.34393        42.47678        -0.00658
C         57.60538        44.64033        -0.22965
C         56.30501        43.94242        -0.13067
C         57.57045        46.14882        -0.33836
C         56.26009        46.82104        -0.29344
C         57.41572        48.97953        -0.69308
C         56.22785        48.24252        -0.37895
C         57.36235        50.37649        -0.63167
C         56.19477        51.04994        -0.25580
C         59.99671        24.66331        -1.36906
C         58.81089        25.31680        -0.94336
C         60.05647        27.45185        -0.92707
C         58.84205        26.72646        -0.70031
C         60.07643        28.89781        -0.73701
C         58.93769        29.55823        -0.28583
C         60.26836        31.76939        -0.36155
C         59.01938        31.00512         0.01434
C         60.16215        33.24230        -0.56909
C         58.84887        33.84738        -0.70138
C         60.04588        36.05822        -1.12613
C         58.80325        35.26500        -1.14522
C         59.94924        37.49104        -1.33797
C         58.70944        38.17891        -1.08289
C         59.88473        40.34927        -1.40300
C         58.70535        39.61654        -1.03191
C         59.87369        41.81032        -1.40703
C         58.77296        42.51326        -0.86631
C         59.86634        44.66573        -1.32306
C         58.76982        43.92533        -0.81271
C         59.85152        46.13642        -1.36746
C         58.70384        46.85879        -0.96063
C         59.74016        48.94990        -1.63570
C         58.63170        48.26697        -1.09957
C         61.17409        25.37040        -1.53283
C         61.20621        26.75506        -1.31831
C         61.23680        29.65996        -1.15577
C         61.31156        31.01106        -1.06173
C         61.30022        34.01086        -0.67438
C         61.24483        35.41759        -0.88576
C         61.07954        38.24074        -1.68072
C         61.03734        39.63684        -1.74914
C         60.95798        42.56054        -1.91135
C         60.95049        43.94486        -1.87091
C         60.94524        46.86339        -1.88196
C         60.88640        48.24972        -2.00679
O         57.27326        42.06526         1.06516
O         42.10792        22.18312         1.88994
O         42.17362        53.98935         2.36537
O         47.04007        18.67007        -2.92949
O         46.77927        54.83161         3.40932
O         35.63256        35.84670         2.09881
O         40.50499        47.20170         1.71888
O         47.53380        29.20972         2.10015
O         39.63833        35.55312         2.66511
O         44.62690        29.22513         2.61659
O         45.97895        52.89572         0.42452
O         31.40394        51.98191        -2.30776
O         49.55186        24.64638         1.95050
O         57.17189        31.62177         1.50824
O         30.50710        36.75064         1.01941
O         40.79590        42.15363         2.44695
O         33.29666        36.34867        -1.67336
O         60.03269        31.34295         1.02238
O         44.73828        24.46444         2.28357
O         52.22044        22.36314         1.30327
O         54.13746        38.77160         1.64958
O         44.77802        46.48478        -0.97464
O         55.43177        27.97432         1.79343
O         25.64802        36.48292        -2.48412
O         57.92346        45.47915         0.93238
O         48.52122        37.77829         2.48413
O         44.28056        19.32905        -2.81483
O         50.64427        31.32643        -1.02712
O         39.59587        47.02970        -1.54193
O         34.57187        42.91854        -2.29065
O         42.68403        32.32234        -0.62144
O         32.70891        32.57148         2.22046
O         35.76236        49.35169        -2.76418
O         45.61939        50.29541         2.87137
O         33.59036        50.81281        -2.88648
O         57.98464        35.55906        -2.33549
O         50.68646        46.42939        -1.11653
O         37.04640        38.55213        -1.13579
O         28.16176        31.53028         1.89304
O         49.08830        34.43352         2.42121
O         50.15385        29.00776         1.98581
H         50.71525        28.32312         2.43077
O         50.41753        27.15730        -1.19818
H         49.75126        27.74396        -1.63787
O         38.75847        21.51881        -1.75965
H         38.60131        20.70956        -2.29173
O         32.76460        27.46992         2.97587
H         33.59511        27.90680         3.26321
O         23.26879        40.80123         0.69847
H         23.23619        40.05081         1.32741
O         33.16480        52.85573         0.81992
H         33.93402        53.37449         1.13783
O         51.21856        43.83725        -1.66911
H         51.05293        44.78207        -1.91578
O         31.65484        29.37394        -0.92502
H         30.85239        29.79926        -1.29633
O         33.10222        20.63091        -1.42945
H         32.36287        20.29701        -1.97839
O         40.02666        33.07232        -0.95302
H         40.84082        32.69242        -1.35731
O         52.58884        45.98736         1.97163
H         53.42403        45.58372         2.29149
O         35.55025        54.53871        -3.00600
H         34.82816        53.96458        -3.34127
O         23.85917        34.69929        -2.54865
H         24.25637        35.40937        -3.10920
O         30.24220        24.32345         2.89345
H         31.11463        23.97754         3.17973
O         30.58660        41.40475        -3.04888
H         30.81146        42.28714        -3.41579
O         42.55371        48.51021         2.71237
H         41.95041        47.74885         2.88634
O         27.01503        30.57375        -1.43749
H         26.21482        30.20450        -1.86827
O         39.18108        31.10427         2.94022
H         38.39130        30.69878         3.35680
O         27.59336        28.99412         2.70920
H         27.68317        29.96411         2.87866
O         32.96354        48.36813        -3.30265
H         33.58521        49.01636        -3.71355
O         48.77117        29.30057        -1.39131
H         49.34615        29.98476        -1.80812
O         23.20735        40.95902        -2.93388
H         23.27686        41.70854        -3.56076
O         31.49432        34.58012        -1.82590
H         32.05067        35.18000        -2.38025
O         33.70337        20.48817         2.17353
H         34.43842        20.82431         2.72769
O         44.07141        16.89758        -3.56772
H         44.47841        17.75909        -3.82897
O         56.21152        33.51716        -2.21554
H         56.82495        34.16077        -2.65638
O         40.76479        50.78731         2.39834
H         41.29660        50.09683         2.86260
O         47.78798        45.91512         2.58137
H         47.78046        46.84059         2.90946
O         29.66534        50.20171         1.29105
H         29.49899        49.23434         1.30365
O         55.46886        23.81114         1.32519
H         55.51691        24.51946         2.00130
O         49.18256        50.46277         3.18865
H         50.04328        50.85208         3.45473
O         24.17588        46.49480         0.89537
H         23.32528        46.92919         1.11966
O         54.64786        23.86713        -2.23245
H         54.63715        23.16337        -2.91395
O         50.69412        32.40700         2.07430
H         50.42732        33.03717         2.78430
O         37.71842        24.09910         2.84342
H         38.57225        23.66751         3.06326
O         40.04957        44.72186         2.57830
H         40.18129        43.80639         2.93160
O         45.24107        31.52476        -1.13278
H         44.40977        31.93033        -1.47452
O         51.29835        26.65475         2.33962
H         50.62328        25.96335         2.57491
O         47.64883        21.21379        -2.67577
H         47.23622        20.57689        -3.30668
O         28.13936        40.02082        -3.05840
H         28.99373        40.44410        -3.32908
H         22.77997        23.51071         1.14021
H         20.67838        24.79654         1.04148
H         20.69942        27.24159         0.75798
H         20.73135        29.12082         0.61487
H         20.76277        31.51193         0.23804
H         20.80709        33.38427        -0.05026
H         20.84471        35.76969        -0.33695
H         20.84980        37.61330        -0.64646
H         20.88630        40.01817        -0.55265
H         20.89591        41.80964        -1.69344
H         20.91104        44.20649        -1.43995
H         20.93977        46.09748        -1.52422
H         23.16815        49.75950        -1.37134
H         21.02461        48.54140        -1.55650
H         24.42291        22.52888         1.03258
H         24.75078        50.70759        -0.66659
H         26.52808        21.30901         0.92000
H         26.89170        51.86915        -0.33817
H         30.25479        19.32736        -0.28176
H         28.13377        20.48225         0.11914
H         30.55661        53.97893         0.01203
H         28.61950        52.64605         0.57353
H         31.84136        18.26054         0.14103
H         32.16046        55.08329        -0.69583
H         33.94261        17.03615         0.23519
H         34.16578        56.28072        -1.28324
H         37.59838        15.06185        -1.16042
H         35.54655        16.17272        -0.49957
H         38.02424        58.38529        -1.18069
H         35.94003        57.16799        -1.56285
H         39.17332        14.21205        -1.72415
H         39.71122        59.25754        -1.20244
H         43.36496        14.40906        -2.66231
H         41.24238        13.10815        -2.47034
H         43.71539        59.31217         0.33368
H         41.81411        60.45983        -0.74239
H         44.85980        15.24387        -1.15077
H         44.92329        58.54141         1.61184
H         47.01496        16.37754        -0.91048
H         46.61549        57.36914         3.00704
H         50.91535        18.26315        -0.94675
H         48.81183        17.19083        -1.56958
H         51.19234        54.84446         2.43059
H         49.14590        55.86361         3.41044
H         52.60397        19.25097        -1.13730
H         52.66107        54.10471         1.46648
H         54.65956        20.50333        -1.25490
H         54.67836        53.01737         0.65498
H         58.42901        22.60018        -1.21637
H         56.31375        21.45852        -1.41301
H         58.25693        50.97411        -0.85268
H         56.22440        52.14605        -0.19180
H         59.99737        23.58346        -1.56350
H         59.71517        50.03994        -1.76470
H         62.08986        24.84843        -1.84277
H         62.15970        27.27913        -1.45992
H         62.05382        29.13425        -1.66726
H         62.14758        31.55185        -1.52854
H         62.28572        33.53933        -0.55651
H         62.18464        35.98562        -0.86226
H         62.02577        37.73096        -1.90762
H         61.95369        40.16874        -2.03598
H         61.82569        42.05463        -2.35416
H         61.81600        44.47711        -2.28539
H         61.86425        46.35007        -2.19202
H         61.75008        48.79501        -2.41169
