         261
 CSIRO Nanostructure Databank - Neutral Graphene Oxide Data Set
C        -11.32136         0.58255         0.40008
C        -10.15237         1.42566         0.39105
C         -8.82284         0.74055         0.62793
C         -7.80765         1.46729        -0.25129
C         -6.48167         0.78670        -0.61400
C         -5.15245         1.47348        -0.44937
C         -3.86057         0.84265        -0.94035
C         -2.54647         1.56934        -0.76914
C         -1.25874         0.83425        -1.06190
C          0.04313         1.53511        -0.75945
C          1.27840         0.69255        -0.65588
C          2.58830         1.40104        -0.56961
C          3.80349         0.70143        -1.09560
C          5.09254         1.45085        -1.11399
C          6.25444         0.71266        -0.48922
C          7.48685         1.58489        -0.18553
C          8.74784         0.73493         0.08054
C         10.06658         1.44500         0.25292
C         11.29531         0.62642         0.13098
C        -10.16084         2.80760         0.27455
C         -8.94189         3.60577         0.29881
C         -7.70346         2.78241         0.55187
C         -6.36130         3.49599         0.58447
C         -5.09032         2.75857         0.31689
C         -3.75245         3.45098         0.51834
C         -2.47371         2.78191         0.13252
C         -1.16066         3.53178         0.35112
C          0.10122         2.93102        -0.21018
C          1.40915         3.54119         0.25306
C          2.68882         2.86564        -0.20616
C          3.96425         3.63831        -0.36744
C          5.11658         2.96477        -1.04970
C          6.41960         3.67168        -1.23140
C          7.60041         2.67344        -1.30595
C          9.26894         3.85536         0.14260
C         10.21770         2.92667         0.12921
C         -8.85774         4.97930         0.26811
C         -7.59987         5.72333         0.32617
C         -6.32538         4.93737         0.06049
C         -4.97238         5.66758         0.36864
C         -3.83824         4.89392         1.05937
C         -2.47214         5.69044         1.07774
C         -1.15885         4.95194         0.85471
C          0.13649         5.76179         0.87234
C          1.43473         5.01368         0.58100
C          2.68498         5.82819         0.25172
C          3.94351         5.14274        -0.24569
C          5.12274         5.91340        -0.80792
C          6.44830         5.19179        -0.97705
C          7.75741         5.85698        -0.47968
C          8.53640         4.91651         0.44152
C         -7.56440         7.08480         0.33739
C         -6.32040         7.93089         0.52125
C         -4.99694         7.15610         0.49117
C         -3.76730         7.94144         0.84794
C         -2.46582         7.20048         1.04999
C         -1.18109         8.00972         0.91774
C          0.13736         7.25675         1.01222
C          1.40475         8.02876         0.68839
C          2.44933         7.26866        -0.20122
C          3.76483         8.07329        -0.26128
C          5.09108         7.39050        -0.49023
C          6.38181         8.02301         0.07481
C          7.49789         7.13289         0.30319
C         -6.17054         9.07655        -0.46647
C         -4.98519         9.68696        -0.64719
C         -3.74245         9.30531         0.07460
C         -2.46417         9.79011        -0.38274
C         -1.21867         9.38983         0.25574
C          0.07881        10.09218         0.01210
C          1.24301         9.45175         0.24022
C          2.47438         9.79023         1.05522
C          3.78183         9.43855         0.37345
C          5.05661         9.94220         0.93738
C          6.22457         9.27384         0.84817
C        -11.25483        -0.77964         0.52441
C        -10.02392        -1.53731         0.65593
C         -8.70105        -0.79617         0.70007
C         -7.71019        -1.46730        -0.27351
C         -6.51548        -0.70919        -0.83070
C         -5.21170        -1.40792        -1.09463
C         -3.91453        -0.63144        -1.31511
C         -2.61711        -1.38872        -1.45841
C         -1.29512        -0.63419        -1.38908
C         -0.01802        -1.44022        -1.42152
C          1.25998        -0.79975        -0.97505
C          2.54721        -1.56909        -1.09449
C          3.84785        -0.82569        -1.18286
C          5.14388        -1.57173        -1.00331
C          6.22386        -0.77623        -0.27714
C          7.45566        -1.47824         0.34196
C          8.73605        -0.77637        -0.18708
C         10.00743        -1.47336         0.26762
C         11.24867        -0.72386         0.23528
C         -9.97668        -2.89659         0.73917
C         -8.64289        -3.62339         0.88585
C         -7.60131        -2.93337        -0.01128
C         -6.24518        -3.56959        -0.04360
C         -5.06992        -2.83233        -0.60124
C         -3.89458        -3.62419        -1.12968
C         -2.59408        -2.85958        -1.11384
C         -1.30757        -3.61107        -1.06572
C         -0.02904        -2.93176        -1.43866
C          1.25052        -3.74407        -1.29997
C          2.56891        -3.04743        -1.38631
C          3.82657        -3.81183        -0.99347
C          5.15408        -3.07859        -0.93112
C          6.39371        -3.73452        -0.42033
C          7.65324        -2.87169        -0.26023
C          8.78518        -3.60983         0.41379
C          9.99276        -2.82337         0.52420
C         -8.73760        -5.10857         0.46988
C         -7.39015        -5.84325         0.45669
C         -6.14342        -5.06316         0.21907
C         -4.90807        -5.81658        -0.22807
C         -3.86232        -5.12508        -1.06353
C         -2.54646        -5.86593        -1.21628
C         -1.27368        -5.10478        -1.18800
C         -0.13761        -5.79078        -0.44400
C          1.17967        -4.99849        -0.46321
C          2.41228        -5.66692         0.08293
C          3.75939        -5.19597        -0.41225
C          5.05120        -5.90418         0.02871
C          6.17814        -4.89593         0.58641
C          7.46412        -5.68945         0.81001
C          8.70195        -4.93220         0.78207
C         -7.35685        -7.20051         0.53806
C         -6.12431        -8.01735         0.39678
C         -4.89221        -7.32491        -0.11818
C         -3.79943        -8.11394        -0.78568
C         -2.52474        -7.37653        -1.05060
C         -1.18429        -8.09650        -0.95063
C          0.07131        -7.26430        -0.85148
C          1.47178        -7.82015        -0.56499
C          2.21891        -7.12304         0.59958
C          3.52336        -7.78737         1.08486
C          4.82870        -7.00953         1.04933
C          6.11651        -7.70315         1.43022
C          7.40570        -7.02078         1.11711
C         -6.15832        -9.49713         0.24237
C         -5.04924       -10.20793        -0.03038
C         -3.75451        -9.63686        -0.57036
C         -2.45651       -10.10299         0.03508
C         -1.11308        -9.55495        -0.40403
C         -0.18341        -9.63059         0.84308
C          1.12591        -9.82628         0.86928
C          2.39059       -10.18254         1.06586
C          3.56732        -9.28450         1.31865
C          4.91820        -9.89836         1.39646
C          6.05534        -9.17952         1.52746
O         -1.78607        -5.56467        -2.44593
O         -8.49499         1.11075         2.01926
O         -3.42608        -7.82959        -2.15253
O         -3.37796        -0.99566        -2.61910
O          5.52062         3.44004        -2.35795
O         -1.21795         0.36985        -2.43948
O          1.84749        -1.47905         0.18889
O         -7.88825         2.38077         1.97563
O         -8.20931        -2.44523        -1.24693
O          5.68326        -4.32273         1.72663
O          9.24978         1.00086         1.42023
O         -4.26558        -4.43340        -2.28208
O         -6.37158         4.72458        -1.32249
O          2.02616        -8.54532        -1.36841
O          6.07286        -3.81964        -1.82319
O         -3.90938         9.16619         1.55603
O         -5.94203         1.58363        -1.69780
O          3.33445        -8.33848         2.42286
O          1.97945        -3.66077        -2.55713
O         -4.61127         6.48164        -0.76966
O          5.68337         0.11210         0.74111
O         -5.02287        -5.28431         1.12134
O          3.63738         9.28218        -1.07428
O          5.35066        -6.86232         2.37789
O          0.15932         2.71372        -1.64657
O          1.97266         0.81838         0.62012
O          8.13677        -2.51775        -1.62507
O          3.84385        -5.00157        -1.84566
O         -2.42898         6.46457         2.30959
O         -3.32958         1.73606        -1.97140
O          5.96268         8.13776        -1.34829
O          1.68618        -4.70531         0.88657
O         -1.01459         3.82642         1.76579
O         -3.05117         2.53675         1.44563
O         -1.89243        -3.08342         0.16374
O          3.79264         5.61723         1.14653
O         -0.38847        -7.78509        -2.12674
O         -5.64634         2.87668         1.68172
O          8.57165        -1.08324        -1.61256
O          4.69573        -1.16810        -2.31769
O          2.14785         8.57681         1.86420
O          1.56160         3.99171         1.60970
O          4.39082         1.15954        -2.35498
O          5.74030         5.77726        -2.11331
O         -6.16026        -1.16100        -2.16542
O         -4.99568        -7.69482         1.29015
O         -8.08032        -0.97232         1.98216
O          3.68739         2.95875         0.87306
O          0.25831         6.42708         2.18092
O          8.36719         2.61226        -2.23451
O         -0.00205        -2.18094        -2.67999
O         -1.28459         9.18933         1.73736
O         -5.28716        -2.86192         0.83256
O          5.60537        -6.55712        -1.10477
H          5.46509        -5.96582        -1.88786
O         -8.44751         1.69881        -1.50741
H         -7.76229         2.01502        -2.14158
O         -3.58704       -10.29272        -1.86232
H         -3.16906        -9.62768        -2.46846
O         -0.59033       -10.38942        -1.44216
H          0.06128        -9.85265        -1.95136
O         -9.31245        -5.18580        -0.84219
H         -9.03085        -4.40429        -1.36652
O          1.89961         7.18303        -1.52994
H          2.18724         7.98425        -2.02428
O         -6.48527         8.49633         1.84331
H         -5.68392         9.03315         2.05571
O          8.56068         6.17460        -1.63087
H          7.97185         6.60052        -2.29194
O         -0.67442        -5.79870         0.89196
H          0.06755        -5.64525         1.52995
O         -4.25291         4.81371         2.42240
H         -3.69973         4.13816         2.87295
O          7.36665        -1.52192         1.74479
H          6.73815        -0.82458         2.04149
O         -8.21181        -3.57055         2.24662
H         -8.08832        -2.60086         2.47016
O          1.32518        -7.09249         1.71428
H          1.81141        -7.48414         2.48551
O          7.16255         2.33466         0.99867
H          7.74687         1.99574         1.72259
H         12.18679        -1.29904         0.25165
H         12.25972         1.14736         0.04543
H         11.25906         3.27669        -0.00146
H          8.45402         5.15552         1.52049
H          8.24454         7.42939         1.05520
H          7.11249         9.66096         1.36984
H          5.00397        10.85849         1.54504
H          2.48088        10.72871         1.65371
H          0.04666        11.19146        -0.04556
H         -2.41949        10.34060        -1.33300
H         -4.89551        10.51357        -1.36878
H         -7.05276         9.42451        -1.02387
H         -8.51186         7.64151         0.42325
H         -9.78430         5.56922         0.17964
H        -11.12286         3.32969         0.15541
H        -12.30515         1.06312         0.29040
H        -12.19278        -1.35612         0.51129
H        -10.90595        -3.48776         0.73702
H         -9.42487        -5.64847         1.16949
H         -8.30345        -7.74833         0.66857
H         -7.09044       -10.02217         0.50173
H         -5.10971       -11.30647        -0.05390
H         -2.43164       -11.14708         0.39041
H         -0.69545        -9.52644         1.81867
H          2.61042       -11.26570         1.11052
H          4.97302       -10.99762         1.38298
H          7.01655        -9.71461         1.57798
H          8.33567        -7.59132         1.27395
H          9.60852        -5.42657         1.16822
H         10.92100        -3.32190         0.84415
