         630
 CSIRO Nanostructure Databank - Neutral Graphene Oxide Data Set
C         23.12879        26.92437        -1.01569
C         23.16104        27.95787        -1.94721
C         23.18299        31.73272        -2.76839
C         23.10825        33.11577        -2.41487
C         22.93175        35.88371        -1.33809
C         22.87212        37.22243        -1.11809
C         22.86594        40.18449        -0.67313
C         22.86978        41.54355        -0.40937
C         22.88540        44.45101        -0.07563
C         22.89078        45.85000         0.05181
C         25.32845        25.11382         1.35400
C         24.25095        25.48321         0.63744
C         25.47770        27.37700        -0.42669
C         24.27311        26.61997        -0.26402
C         25.49296        28.48969        -1.32193
C         24.34027        28.70761        -2.08180
C         25.47395        31.51767        -1.83388
C         24.30935        30.99014        -2.49959
C         25.41124        32.98646        -1.42415
C         24.17665        33.75335        -1.84868
C         25.36392        35.90578        -1.62544
C         24.17432        35.20164        -1.63488
C         25.36774        37.37476        -1.60939
C         24.03144        38.08823        -1.37861
C         25.30603        40.18142        -0.80982
C         24.06777        39.49511        -0.91102
C         25.31747        41.56644        -0.44655
C         24.08212        42.26424        -0.30218
C         25.29929        44.34199         0.40883
C         24.05310        43.68763        -0.02354
C         25.28650        45.84118         0.68595
C         24.06703        46.57678         0.29981
C         25.35127        48.67117         0.13836
C         24.13666        47.96936         0.09369
C         27.88583        23.69486         1.70774
C         27.85694        25.01108         1.33677
C         26.61673        25.88442         1.31657
C         27.90931        27.54379        -0.10705
C         26.67327        26.92756         0.21425
C         27.94651        28.76436        -0.85013
C         26.75848        29.28295        -1.63709
C         27.90457        31.56298        -1.40924
C         26.64551        30.81961        -1.54973
C         27.94072        33.00169        -1.58367
C         26.67684        33.70776        -1.83157
C         27.90360        35.94029        -1.56230
C         26.65512        35.21907        -1.84377
C         27.87614        37.35914        -1.35047
C         26.62199        38.10703        -1.33069
C         27.79402        40.26364        -1.02349
C         26.55323        39.47249        -1.05709
C         27.80763        41.63852        -0.48402
C         26.57538        42.28419        -0.24901
C         27.79482        44.37109         0.20497
C         26.57986        43.65200         0.14307
C         27.77701        45.86463         0.22067
C         26.60634        46.60730         0.85515
C         27.82339        48.77935         0.41887
C         26.57161        48.05518         0.40413
C         27.86277        50.20137         0.47332
C         30.34116        23.49303         1.54905
C         29.10338        22.94196         1.79483
C         30.43397        24.94356         1.28812
C         29.12602        25.73752         1.15592
C         30.37797        27.54742         0.00556
C         29.14225        26.97718         0.36471
C         30.39265        28.84415        -0.59366
C         29.14836        29.48327        -0.93032
C         30.41117        31.58203        -1.61344
C         29.11854        30.87652        -1.28537
C         30.38787        33.07352        -1.37838
C         29.12910        33.75333        -1.54002
C         30.34862        35.90570        -1.31127
C         29.11090        35.20719        -1.49068
C         30.34394        37.32430        -1.14651
C         29.09669        38.02539        -1.13261
C         30.28616        40.17107        -0.48921
C         29.09582        39.49283        -1.04819
C         30.30247        41.63720        -0.39775
C         29.04826        42.32420        -0.28904
C         30.29046        44.43736         0.29201
C         29.02180        43.71357         0.02794
C         30.34332        45.91066         0.23059
C         29.06308        46.63137         0.14234
C         30.29577        48.76664         0.48753
C         29.05932        48.08391         0.40945
C         30.30543        50.19034         0.55003
C         29.06070        50.87857         0.53222
C         32.85855        20.69087         2.11916
C         31.63650        21.39447         1.98241
C         32.79129        23.35772         1.11413
C         31.58288        22.72221         1.53104
C         32.83164        24.70148         0.68253
C         31.64391        25.49523         0.66463
C         32.82836        27.43440        -0.27813
C         31.62457        26.82484         0.17453
C         32.86282        28.79996        -0.62912
C         31.63179        29.50902        -0.80356
C         32.84968        31.60592        -1.00164
C         31.65451        30.90258        -1.09557
C         32.82080        33.08537        -0.74412
C         31.56712        33.77371        -1.20716
C         32.82603        35.91007        -1.17427
C         31.58584        35.20701        -1.22708
C         32.82702        37.33506        -1.12991
C         31.58379        38.01154        -1.03786
C         32.78929        40.23416        -0.82750
C         31.57877        39.41533        -0.60232
C         32.77709        41.61849        -0.34728
C         31.56188        42.27109        -0.18006
C         32.84812        44.45468         0.01345
C         31.59062        43.69465         0.22167
C         32.81594        45.88586         0.25169
C         31.53544        46.58327         0.39324
C         32.74304        48.71555         0.77340
C         31.54693        48.04067         0.53427
C         32.78044        50.15451         0.77906
C         31.56273        50.88490         0.60539
C         32.82440        52.96673         0.50872
C         31.62370        52.29783         0.48514
C         35.39686        19.13425         2.19421
C         35.34668        20.56348         1.93602
C         34.06826        21.23459         1.73113
C         35.27312        23.39092         1.22835
C         34.05337        22.53686         0.96190
C         35.31182        24.71581         0.56994
C         34.08828        25.31201         0.28616
C         35.39966        27.37824        -0.49244
C         34.05580        26.63448        -0.33796
C         35.35700        28.84206        -0.59565
C         34.11570        29.50634        -0.75240
C         35.32543        31.66230        -0.88280
C         34.09668        30.92648        -0.85756
C         35.31840        33.09500        -1.03836
C         34.10001        33.80328        -1.07984
C         35.32664        35.93387        -1.18739
C         34.08634        35.21078        -1.16252
C         35.30928        37.37418        -1.13185
C         34.08095        38.04353        -1.08209
C         35.33672        40.25641        -0.84149
C         34.08111        39.51686        -1.07239
C         35.32905        41.61217        -0.51915
C         34.07862        42.26852         0.04706
C         35.29471        44.48049        -0.30617
C         34.02975        43.76643        -0.15250
C         35.27417        45.99001         0.01115
C         33.99973        46.58758         0.39912
C         35.28286        48.63853         1.18271
C         33.95477        47.87999         1.17232
C         35.27961        50.15423         1.12394
C         34.01030        50.86890         0.87266
C         35.31339        52.98478         0.72765
C         34.05033        52.27134         0.70526
C         35.35651        54.39663         0.65202
C         37.84707        19.17562         2.50102
C         36.56047        18.46782         2.40024
C         37.83353        20.64665         2.13281
C         36.54010        21.26157         1.80719
C         37.82549        23.41752         1.26976
C         36.55852        22.71670         1.56253
C         37.80147        24.73502         0.85375
C         36.57123        25.40578         0.47229
C         37.84006        27.48925        -0.03770
C         36.61339        26.73750         0.02250
C         37.82083        28.86336        -0.42282
C         36.57414        29.55975        -0.58719
C         37.79643        31.69268        -0.92177
C         36.56006        30.97607        -0.78137
C         37.77934        33.08200        -1.14854
C         36.55903        33.80450        -1.15715
C         37.80948        35.97093        -1.21829
C         36.55495        35.23586        -1.22051
C         37.80797        37.39711        -1.19290
C         36.55517        38.12260        -1.15014
C         37.78750        40.30682        -1.16050
C         36.54735        39.52424        -1.04544
C         37.80777        41.69823        -0.68008
C         36.57114        42.35010        -0.43044
C         37.79034        44.45936         0.00827
C         36.57403        43.75032        -0.19879
C         37.74828        45.85921         0.35902
C         36.55382        46.60338         0.42001
C         37.77241        48.68439         0.91497
C         36.54753        47.95289         0.85367
C         37.76752        50.12700         0.92967
C         36.55748        50.85168         0.88355
C         37.80041        52.97120         0.77251
C         36.54994        52.26793         0.79078
C         37.79600        54.42411         0.80448
C         36.55022        55.09186         0.70024
C         40.43576        16.51337         3.21812
C         39.25249        17.21428         3.17933
C         40.31046        19.04372         1.86372
C         39.12307        18.42582         2.46942
C         40.29200        20.52847         1.49735
C         39.06979        21.33213         1.68439
C         40.32507        23.35282         1.02970
C         39.07575        22.67854         1.37047
C         40.33248        24.71630         0.73319
C         39.08005        25.53203         0.95515
C         40.29354        27.49282        -0.04299
C         39.07201        26.84334         0.22129
C         40.28642        28.86701        -0.42765
C         39.04894        29.57504        -0.56037
C         40.27734        31.68596        -0.91554
C         39.04020        30.97392        -0.83390
C         40.29669        33.09015        -1.09995
C         39.04380        33.79647        -1.53783
C         40.27155        35.96941        -1.17708
C         39.03834        35.27381        -1.22917
C         40.27140        37.38875        -1.17732
C         39.05553        38.08471        -1.20713
C         40.33582        40.29308        -0.96883
C         39.09026        39.56098        -1.28974
C         40.28166        41.68353        -0.72808
C         39.04171        42.38284        -0.54393
C         40.29382        44.41752         0.12987
C         39.04211        43.76280        -0.12220
C         40.30112        45.75863         0.74336
C         38.96865        46.51865         0.84829
C         40.24696        48.68578         0.93698
C         39.00681        47.98958         0.88476
C         40.25597        50.10302         0.92828
C         39.01815        50.82604         0.87120
C         40.28207        52.98225         0.49622
C         39.00303        52.23955         0.77606
C         40.24631        54.34644         1.17228
C         38.99873        55.13397         1.06343
C         40.24635        57.20839         1.55025
C         39.06044        56.52678         1.31730
C         42.91315        16.47108         3.01089
C         41.62686        16.94076         2.40212
C         42.80213        19.13962         1.96752
C         41.62844        18.42509         2.11373
C         42.80066        20.54609         1.56682
C         41.57876        21.24026         1.39297
C         42.79397        23.30204         0.82870
C         41.56556        22.62256         1.08557
C         42.79227        24.68077         0.46051
C         41.55272        25.39455         0.41839
C         42.77150        27.43489        -0.23245
C         41.54701        26.77721         0.07060
C         42.76334        28.83771        -0.55333
C         41.52057        29.55542        -0.60765
C         42.74001        31.66785        -0.88452
C         41.50924        30.96150        -0.80412
C         42.74619        33.09186        -0.91366
C         41.51045        33.81553        -1.03922
C         42.75920        35.95426        -0.97226
C         41.52796        35.24283        -1.10759
C         42.79276        37.37695        -1.01162
C         41.56203        38.13684        -1.44198
C         42.78866        40.25650        -0.74513
C         41.55347        39.57976        -0.98614
C         42.80251        41.66503        -0.54106
C         41.56084        42.47066        -0.83999
C         42.75970        44.45473         0.15254
C         41.52454        43.80159        -0.13808
C         42.76378        45.83623         0.54688
C         41.54161        46.54337         0.73922
C         42.72092        48.66875         1.10511
C         41.50835        47.95638         0.93755
C         42.76933        50.09352         1.15381
C         41.51799        50.83275         0.97873
C         42.81439        52.94755         0.80821
C         41.53230        52.20599         0.84869
C         42.80561        54.43838         0.97900
C         41.52575        55.08520         1.38569
C         42.72898        57.20404         1.67917
C         41.51266        56.55618         1.53490
C         44.04019        17.20450         2.93518
C         45.27233        19.17684         2.06270
C         44.07292        18.51592         2.30948
C         45.28131        20.51229         1.48345
C         44.02463        21.23248         1.36299
C         45.25151        23.27833         0.64681
C         44.02931        22.59779         0.94759
C         45.25849        24.61201         0.22486
C         44.02050        25.34181         0.15432
C         45.24197        27.39983        -0.51201
C         44.00829        26.72381        -0.19354
C         45.22936        28.79381        -0.81454
C         43.97554        29.51368        -0.80593
C         45.17658        31.65465        -1.05961
C         43.96204        30.93937        -0.95599
C         45.18404        33.03482        -0.84309
C         43.97377        33.78503        -0.79573
C         45.19696        35.93419        -0.61872
C         43.98629        35.22906        -0.76183
C         45.22809        37.35352        -0.66854
C         43.99627        38.07815        -0.81228
C         45.23891        40.20462        -0.49671
C         44.01427        39.51865        -0.70237
C         45.24315        41.61439        -0.25906
C         44.00750        42.33754        -0.25913
C         45.22892        44.41471         0.32902
C         44.00435        43.75291         0.04854
C         45.22709        45.80201         0.69993
C         44.00106        46.48692         0.81047
C         45.26474        48.60741         1.45797
C         43.95400        47.87903         1.28984
C         45.25466        50.08692         1.39535
C         44.00010        50.78887         1.28097
C         45.23844        52.94083         1.33969
C         44.07270        52.23501         1.14396
C         45.33609        54.41685         0.97061
C         44.05408        55.16471         1.29130
C         43.97350        56.49575         1.61115
C         47.71717        19.14935         2.01341
C         46.55296        18.61005         2.43809
C         47.70443        20.28838         1.07521
C         46.46219        21.09091         1.05748
C         47.66172        23.07131        -0.03239
C         46.56745        22.58965         0.90407
C         47.66704        24.52569        -0.33730
C         46.50447        25.25639        -0.21113
C         47.64353        27.33138        -0.99002
C         46.46621        26.67326        -0.57368
C         47.64039        28.73230        -1.22125
C         46.44320        29.46518        -1.11847
C         47.68806        31.67568        -1.21032
C         46.41008        30.93104        -1.52695
C         47.72213        33.00264        -0.84468
C         46.45733        33.70146        -0.53366
C         47.73242        35.91291        -0.49885
C         46.45361        35.19999        -0.37085
C         47.69872        37.30391        -0.57799
C         46.47450        38.04969        -0.60766
C         47.69549        40.20782        -0.40190
C         46.48526        39.48587        -0.53212
C         47.70972        41.59017        -0.08515
C         46.47311        42.30232        -0.02012
C         47.71112        44.36458         0.52818
C         46.47436        43.70067         0.26859
C         47.71516        45.77983         0.79601
C         46.48900        46.48490         0.90289
C         47.72884        48.58525         1.23194
C         46.51564        47.88359         1.16680
C         47.71314        50.01596         1.59838
C         46.44904        50.76422         1.51533
C         47.76368        52.94510         1.52001
C         46.46862        52.23261         1.86291
C         47.72670        54.39044         1.63004
C         46.57677        55.07954         1.50087
C         50.25743        20.48706         1.12843
C         48.98896        20.90624         0.53956
C         50.26246        22.93999        -0.51640
C         48.93044        22.27211        -0.12609
C         50.19394        24.46393        -0.60318
C         48.87154        25.03253        -1.11165
C         50.20076        27.29848        -1.26426
C         48.88425        26.55617        -1.26852
C         50.18973        28.76866        -1.24752
C         48.91846        29.42793        -1.53783
C         50.19964        31.65037        -1.21342
C         48.93503        30.97413        -1.50172
C         50.19422        33.05621        -0.96440
C         48.96291        33.74536        -0.78161
C         50.21273        35.84489        -0.52753
C         48.96962        35.16227        -0.57912
C         50.19702        37.29542        -0.12363
C         48.98338        38.01875        -0.66617
C         50.21842        40.18433        -0.14220
C         48.97847        39.51468        -0.56953
C         50.19845        41.51608         0.20089
C         48.95263        42.26611         0.20353
C         50.19822        44.32407         0.99264
C         48.93576        43.63441         0.51380
C         50.19344        45.80900         0.76223
C         48.96111        46.49724         0.86733
C         50.20020        48.64909         0.94454
C         48.96237        47.91917         1.02313
C         50.21880        50.07047         1.04007
C         49.01185        50.79255         1.48104
C         50.17408        52.93308         0.97047
C         48.94668        52.26356         1.32023
C         51.37371        21.28140         1.06840
C         52.65378        23.20188         0.18659
C         51.42763        22.48805         0.33381
C         52.64716        24.50129        -0.37400
C         51.40084        25.16826        -0.66639
C         52.64805        27.33173        -0.88797
C         51.45581        26.59828        -0.94763
C         52.64326        28.77592        -1.04518
C         51.39423        29.47731        -1.21925
C         52.64525        31.62989        -1.23759
C         51.40156        30.92410        -1.23028
C         52.65944        33.06116        -1.12405
C         51.44163        33.75913        -0.92439
C         52.69109        35.89281        -0.67366
C         51.44063        35.17419        -0.69665
C         52.70621        37.31880        -0.56846
C         51.46955        38.05092        -0.39673
C         52.69423        40.18360        -0.27731
C         51.45878        39.43156        -0.24957
C         52.70900        41.51297         0.06355
C         51.48806        42.15267         0.68408
C         52.64389        44.36657         0.36216
C         51.47437        43.65377         0.55399
C         52.64748        45.81683         0.42302
C         51.41286        46.51578         0.62806
C         52.62713        48.67598         0.49062
C         51.40938        47.95078         0.67006
C         52.61273        50.10430         0.50101
C         51.38901        50.80164         0.75258
C         51.32723        52.24645         0.73527
C         55.09807        23.29226         0.46332
C         53.89639        22.62285         0.60814
C         55.17184        24.56576        -0.12568
C         53.94387        25.14569        -0.78841
C         55.11731        27.34130        -0.70617
C         53.92035        26.65447        -0.73318
C         55.15347        28.84774        -0.67765
C         53.85048        29.50525        -1.07687
C         55.09234        31.63119        -1.75702
C         53.85204        30.89969        -1.29815
C         55.12678        33.09099        -1.33804
C         53.90931        33.77325        -1.09406
C         55.15865        35.89347        -0.81217
C         53.91765        35.18882        -0.85660
C         55.16068        37.32699        -0.69521
C         53.92500        38.01808        -0.65623
C         55.19737        40.19011        -0.43357
C         53.91736        39.51155        -0.83982
C         55.17740        41.58395        -0.23656
C         53.93204        42.28028        -0.03012
C         55.12437        44.42481        -0.00134
C         53.90543        43.67356         0.11524
C         55.10001        45.84344         0.06322
C         53.85862        46.53885         0.26626
C         55.07897        48.69926         0.15253
C         53.85466        47.97080         0.29540
C         55.02540        50.12793         0.14803
C         53.84234        50.80081         0.30385
C         57.65781        24.65464         0.07250
C         56.40557        25.28271        -0.22132
C         57.61924        27.39433        -0.65725
C         56.38518        26.66263        -0.56984
C         57.64510        28.76282        -1.04827
C         56.33732        29.38922        -1.48905
C         57.61838        31.55981        -1.71403
C         56.36305        30.88861        -1.45462
C         57.60977        33.12586        -1.67463
C         56.34428        33.79703        -1.32627
C         57.64339        35.86491        -0.89676
C         56.38313        35.18212        -0.99984
C         57.63291        37.27570        -0.47075
C         56.39030        38.04767        -0.57783
C         57.67036        40.19731        -0.39995
C         56.41811        39.46539        -0.45171
C         57.64692        41.62819        -0.35081
C         56.40618        42.31887        -0.22309
C         57.58638        44.48437        -0.28767
C         56.36725        43.73947        -0.15970
C         57.53810        45.89882        -0.31987
C         56.31881        46.58182        -0.09900
C         57.58095        48.70856         0.01933
C         56.31150        48.01139        -0.00293
C         58.83620        25.35370         0.01002
C         60.06475        27.45393        -0.42389
C         58.84735        26.73168        -0.35473
C         60.07081        28.78537        -0.77598
C         58.86296        29.46629        -1.10774
C         60.05856        31.63310        -1.51761
C         58.89278        30.88108        -1.46874
C         60.05835        33.04808        -1.51095
C         58.88885        33.79834        -1.42771
C         60.08986        35.97702        -1.17142
C         58.86796        35.21031        -1.11092
C         60.13485        37.31861        -0.95926
C         58.96946        38.05204        -0.45815
C         60.10563        40.28161        -0.60433
C         58.91293        39.52842        -0.51009
C         60.09207        41.66014        -0.54570
C         58.87121        42.37526        -0.40427
C         60.05389        44.58882        -0.29701
C         58.84010        43.79993        -0.35823
C         60.03522        45.93802        -0.39792
C         58.76630        46.66606        -0.74295
C         58.74644        48.08776        -0.26821
O         29.93461        25.79656         2.38373
O         24.34814        29.70694        -3.07266
O         30.96288        43.93148         1.52798
O         49.51684        26.87687        -2.55125
O         34.75964        26.69476        -1.62097
O         48.50880        50.34048         2.80316
O         58.38877        37.51050         0.77028
O         35.35530        49.43213         2.42051
O         30.90797        39.55498         0.69859
O         47.95231        22.26018        -1.20719
O         26.64939        34.41895        -3.09860
O         44.55755        48.07153         2.62979
O         33.29874        40.08851        -2.20500
O         42.84833        53.85671        -0.39888
O         40.10440        19.48231         0.45965
O         40.86638        54.37532         2.50161
O         35.73932        23.42812         2.60448
O         39.56578        45.84890         2.01363
O         48.27621        19.89240        -0.23566
O         35.29938        45.49105        -1.36806
O         25.12773        44.89324         1.78808
O         46.42375        34.30590         0.81092
O         38.43827        40.11248        -2.48702
O         57.58083        32.40180        -2.94929
O         28.60186        40.14744        -2.25830
O         37.89570        20.21860         3.55788
O         24.59300        37.94724        -2.72317
O         49.15245        38.80324        -1.87193
O         48.91796        30.22079        -2.77456
O         28.23169        46.35005        -1.08062
O         47.02700        23.05632         2.23174
H         46.30018        22.89626         2.87114
O         54.97276        31.65958        -3.23119
H         55.81410        32.06479        -3.55991
O         41.65317        38.20386        -2.91831
H         40.83437        38.63965        -3.24124
O         26.67176        26.63836         2.58122
H         27.60542        26.90144         2.73335
O         58.72432        46.72719        -2.22337
H         58.73247        45.80091        -2.54653
O         54.08053        24.80725        -2.22850
H         53.92405        23.84233        -2.31647
O         34.15272        22.17119        -0.45864
H         33.34117        21.67535        -0.69674
O         50.56123        22.49788        -1.87328
H         49.76887        22.75645        -2.40680
O         46.30021        30.93143        -2.98990
H         47.15807        30.57583        -3.33411
O         27.07963        28.99679        -3.03670
H         26.28950        29.25468        -3.56510
O         40.29186        53.20325        -0.94761
H         41.20130        53.51505        -1.18126
O         34.20840        42.06109         1.50366
H         33.41801        42.45677         1.93263
O         48.70955        24.47862        -2.45540
H         49.15172        25.11924        -3.06443
O         50.00550        37.31226         1.33335
H         50.75600        36.83254         1.74288
O         45.48231        54.45876        -0.48887
H         44.60222        54.21084        -0.86740
O         41.49801        16.26315         1.09754
H         40.79399        16.72812         0.59631
O         26.89890        46.66341         2.27794
H         26.40454        45.91976         2.69896
O         39.06987        33.72654        -3.02094
H         39.88526        34.18390        -3.31972
O         41.66851        42.81104        -2.28445
H         41.60466        41.96951        -2.78576
O         56.09371        28.98666        -2.86923
H         56.63751        29.54935        -3.45925
O         50.15649        44.16950         2.48104
H         50.81739        44.79202         2.85491
O         46.39239        52.26463         3.33361
H         47.11146        51.67041         3.65528
O         33.70581        47.47673         2.55349
H         34.03304        48.21371         3.12098
O         39.14583        25.93337         2.38203
H         38.96559        25.13252         2.92066
O         25.43176        33.00061         0.04073
H         24.63087        32.53433         0.35975
O         32.73794        33.17542         0.73616
H         33.56916        32.80038         1.09866
O         30.53018        31.43944        -3.08125
H         29.70075        31.78020        -3.48035
O         53.84506        39.70074        -2.31021
H         53.77154        40.66510        -2.47559
O         55.40516        29.25107         0.70304
H         54.70052        28.86782         1.26589
O         51.58047        41.86591         2.12249
H         50.93391        42.47053         2.56721
H         22.21878        26.32173        -0.88617
H         22.29224        28.18880        -2.57611
H         22.36456        31.27524        -3.33803
H         22.21148        33.68305        -2.70088
H         22.03342        35.27125        -1.17244
H         21.94235        37.66642        -0.73513
H         21.90490        39.65898        -0.75090
H         21.90927        42.05530        -0.26901
H         21.93085        43.97285        -0.33424
H         21.96161        46.40309        -0.14855
H         25.25302        24.27536         2.06077
H         23.31052        24.91702         0.71798
H         25.33017        49.74102        -0.11390
H         23.21860        48.50707        -0.18353
H         26.94794        23.15442         1.89844
H         26.92584        50.77417         0.49854
H         29.01351        21.87005         2.01988
H         29.03889        51.97460         0.59365
H         32.82888        19.70899         2.61339
H         30.72001        20.90123         2.33314
H         32.81989        54.05494         0.37032
H         30.70314        52.87624         0.33420
H         34.46032        18.56134         2.13628
H         34.42641        54.97531         0.58681
H         36.56133        17.36968         2.46358
H         36.52049        56.18934         0.67609
H         40.49180        15.56164         3.76571
H         38.37687        16.82722         3.72208
H         40.21764        58.29459         1.71900
H         38.12881        57.11010         1.31323
H         42.92709        15.47703         3.48205
H         42.75175        58.29062         1.84344
H         44.96716        16.79488         3.35929
H         44.88816        57.07790         1.79048
H         48.66927        18.66606         2.27091
H         46.58351        17.71561         3.07423
H         48.65407        54.92594         1.88382
H         46.58715        56.17161         1.61998
H         50.31545        19.51710         1.63892
H         50.17632        54.02820         0.88511
H         52.27217        20.93396         1.59603
H         52.22891        52.81774         0.48031
H         56.00740        22.81295         0.85141
H         53.91195        21.62106         1.05377
H         55.94596        50.70694        -0.00049
H         53.85715        51.89804         0.28951
H         57.68532        23.58795         0.33171
H         57.60069        49.76677         0.31570
H         59.79045        24.85365         0.23009
H         61.00726        26.94023        -0.18585
H         61.02796        29.32213        -0.80842
H         61.03488        31.13715        -1.43155
H         61.03367        33.54454        -1.41810
H         61.00347        35.47464        -1.51720
H         61.05844        37.86658        -1.19224
H         61.07109        39.76560        -0.69291
H         61.04523        42.20099        -0.60712
H         61.01170        44.07868        -0.12193
H         60.97124        46.51316        -0.33844
H         59.69720        48.64001        -0.23013
