         334
 CSIRO Nanostructure Databank - Neutral Graphene Oxide Data Set
C         30.37090        57.03730        -0.62286
C         30.30380        58.47665        -0.89934
C         29.07869        59.24735        -0.69771
C         30.32307        61.36132        -0.59738
C         29.11193        60.61957        -0.63302
C         32.79889        52.79132        -0.07034
C         32.77468        54.20283        -0.15008
C         31.58898        54.92374        -0.36531
C         32.85086        57.05465        -0.53969
C         31.57543        56.34422        -0.53580
C         32.84336        58.54162        -0.43446
C         31.61388        59.27321        -0.84248
C         32.78851        61.43230        -0.41482
C         31.56938        60.72814        -0.59143
C         35.29311        48.55878         0.89653
C         35.18811        50.04938         1.12646
C         34.02452        50.70316         0.41308
C         35.19335        52.87963         0.70766
C         33.98273        52.07303         0.27509
C         35.22069        54.25308         0.09423
C         34.04797        54.92724        -0.13978
C         35.30907        57.07877        -0.31862
C         34.03605        56.36788        -0.37373
C         35.36619        58.52920        -0.55957
C         34.13086        59.33667        -0.39178
C         35.20761        61.66262        -0.26811
C         34.06994        60.84198        -0.47027
C         37.65585        44.24055         0.46598
C         37.72154        45.75036         0.52697
C         36.53387        46.45253         0.58710
C         37.78880        48.61541         0.62335
C         36.46988        47.88867         0.74540
C         37.74988        50.02763         1.21038
C         36.48884        50.77644         0.85413
C         37.75641        52.85015         0.49853
C         36.49797        52.11576         0.61551
C         37.76584        54.22703         0.25798
C         36.52238        54.88023        -0.30722
C         37.75663        57.12310        -0.18254
C         36.47995        56.37824        -0.21966
C         37.86440        58.39625        -0.99257
C         36.52362        59.05035        -1.05158
C         37.75886        61.47701        -0.01864
C         36.52819        61.22184        -0.58919
C         40.22601        40.05761        -0.17986
C         40.21609        41.45570        -0.04204
C         38.99657        42.18707         0.10524
C         40.22612        44.27540         0.42088
C         38.99294        43.55375         0.30322
C         40.20083        45.68982         0.69262
C         38.99761        46.39448         0.70831
C         40.26862        48.57454         0.94671
C         38.97406        47.82626         1.21594
C         40.23158        50.01211         0.79195
C         39.02344        50.74165         0.83210
C         40.22595        52.83135         0.35352
C         39.00208        52.13830         0.60437
C         40.21393        54.23635         0.12370
C         39.00769        54.92561         0.15603
C         40.27943        57.11200        -0.31213
C         39.02744        56.39916         0.03745
C         40.23980        58.58067        -0.37941
C         39.02681        59.27135        -0.50861
C         40.19060        61.34917         0.04303
C         38.98139        60.69610        -0.23262
C         42.69735        35.80663        -0.28746
C         42.68428        37.20923        -0.42596
C         41.46125        37.93643        -0.38328
C         42.66463        40.09322        -0.48713
C         41.43902        39.34880        -0.35060
C         42.66343        41.47141        -0.32996
C         41.45144        42.17836        -0.04681
C         42.71611        44.26815         0.35016
C         41.45990        43.57984         0.23517
C         42.78346        45.61196         1.08341
C         41.42275        46.38481         1.28339
C         42.70692        48.59105         0.77620
C         41.46361        47.87219         0.91223
C         42.70110        50.01202         0.68582
C         41.46342        50.72516         0.62217
C         42.70350        52.85100         0.29874
C         41.46004        52.12274         0.39937
C         42.72682        54.24672         0.07986
C         41.45898        54.91079        -0.40048
C         42.74127        57.12276        -0.64904
C         41.44698        56.42049        -0.33934
C         42.71920        58.59839        -0.29488
C         41.48946        59.28122        -0.23369
C         42.67361        61.40301         0.12822
C         41.45981        60.70362        -0.02043
C         45.14848        32.96956        -0.24692
C         43.93782        33.66135        -0.20674
C         45.14592        35.80007        -0.36366
C         43.91248        35.08463        -0.27944
C         45.12750        37.20980        -0.53860
C         43.92631        37.90774        -0.60029
C         45.18719        40.09666        -0.54946
C         43.91526        39.37833        -0.95150
C         45.18355        41.49543        -0.41138
C         43.90490        42.26122        -0.62389
C         45.17870        44.28986         0.10844
C         43.91324        43.63974        -0.02743
C         45.17502        45.69000         0.56700
C         43.87084        46.43381         0.35867
C         45.16429        48.59772         0.61815
C         43.94538        47.89969         0.68756
C         45.16629        50.03027         0.61393
C         43.92896        50.73011         0.61943
C         45.15301        52.86920         0.43022
C         43.92775        52.15152         0.47184
C         45.16323        54.26560         0.23850
C         43.94605        54.95381         0.07333
C         45.23984        57.12665        -0.21440
C         43.89242        56.46780         0.13894
C         45.18903        58.61058         0.05332
C         43.93682        59.29220        -0.05500
C         45.15032        61.41599         0.25184
C         43.91807        60.72605         0.12246
C         46.36352        33.64830        -0.31632
C         47.61053        35.77198        -0.28002
C         46.40366        35.07548        -0.33244
C         47.58696        37.25305        -0.04170
C         46.43805        37.91294        -0.80956
C         47.62876        40.08157        -0.41855
C         46.40024        39.39146        -0.50738
C         47.63004        41.48526        -0.38973
C         46.40922        42.19480        -0.32560
C         47.65464        44.34660        -0.09906
C         46.41132        43.64047        -0.12876
C         47.69919        45.75053         0.18499
C         46.47455        46.44030         0.62116
C         47.63390        48.58931         0.42852
C         46.44172        47.91158         0.54036
C         47.67112        50.07136         0.22331
C         46.38420        50.75991         0.55818
C         47.62401        52.87332         0.79445
C         46.39279        52.15511         0.57499
C         47.66793        54.24723         0.69342
C         46.50358        54.95259         0.03114
C         47.68785        57.15485         0.48568
C         46.39043        56.40547         0.52088
C         47.65228        58.57610         0.41622
C         46.39188        59.29155         0.23972
C         47.62814        61.42392         0.33081
C         46.38723        60.73632         0.28688
C         48.88857        37.97402        -0.27209
C         50.13441        40.09140        -0.37593
C         48.90500        39.34591        -0.38703
C         50.17015        41.48353        -0.45161
C         48.89002        42.22196        -0.75765
C         50.10651        44.34639        -0.35116
C         48.90302        43.66462        -0.32910
C         50.09939        45.83879        -0.50653
C         48.87249        46.48649         0.05207
C         50.10654        48.61367         0.33227
C         48.89455        47.89666         0.29061
C         50.10775        50.01914         0.73130
C         48.89185        50.70821         0.82587
C         50.07289        52.87168         1.47298
C         48.75548        52.09162         1.41574
C         50.09963        54.32185         1.16226
C         48.88467        54.99639         0.87565
C         50.11869        57.13052         0.86210
C         48.89373        56.43022         0.72634
C         50.08311        58.61917         1.07127
C         48.84397        59.30491         0.56989
C         50.10829        61.40852         0.37920
C         48.85597        60.73099         0.43560
C         51.36804        42.22491        -0.38812
C         52.57426        44.39306        -0.41240
C         51.37855        43.64916        -0.41726
C         52.59774        45.82225        -0.26307
C         51.37608        46.53057        -0.12863
C         52.59190        48.63211         0.15213
C         51.36529        47.91756         0.13740
C         52.56602        50.08582         0.39417
C         51.34835        50.68852         0.93834
C         52.60954        52.88910         1.15242
C         51.37413        52.10839         1.32368
C         52.59683        54.28072         1.11994
C         51.33717        55.00675         1.08908
C         52.59366        57.15739         0.92778
C         51.34758        56.43446         0.96426
C         52.55754        58.58003         0.75740
C         51.36067        59.29701         0.67175
C         52.56142        61.39705         0.15721
C         51.34295        60.71799         0.41827
C         53.81044        46.56415        -0.23440
C         55.08669        48.74416        -0.32497
C         53.81164        47.95482        -0.07940
C         55.14873        50.08921         0.37743
C         53.86722        50.83494         0.47833
C         55.11652        52.88286         1.10231
C         53.86821        52.10288         1.33540
C         55.08060        54.26734         0.89930
C         53.83701        55.00227         0.97532
C         55.07461        57.09930         0.66700
C         53.84009        56.42694         0.88849
C         55.12748        58.56641         0.67235
C         53.81913        59.34357         0.73192
C         55.01880        61.36143        -0.07493
C         53.80659        60.74088         0.24600
C         56.31118        50.69377         0.69310
C         57.57122        52.84962         0.67410
C         56.40284        52.11027         1.24628
C         57.52720        54.22016         0.41622
C         56.29857        54.96683         0.59759
C         57.48828        57.07439         0.08605
C         56.28936        56.37966         0.44333
C         57.48714        58.50090        -0.10633
C         56.30457        59.24879         0.12335
C         57.43015        61.27788        -0.63371
C         56.25386        60.64118        -0.15698
C         58.68689        54.91543        -0.01623
C         59.86291        56.98027        -0.59727
C         58.69942        56.32687        -0.17906
C         59.98950        58.46999        -0.63290
C         58.66064        59.18094        -0.52839
C         59.87075        61.24265        -1.31061
C         58.61619        60.56094        -0.80207
C         60.75372        58.98847        -1.83287
C         60.69346        60.28913        -2.13900
O         54.62825        59.15590         1.93839
O         41.09444        46.33614         2.67014
O         33.40373        58.96407         0.85003
O         31.07992        58.86001        -2.11809
O         53.15744        50.91936        -0.78399
O         36.52779        60.30014        -1.66640
O         50.80493        52.47179         2.67293
O         45.84384        45.90127         1.84096
O         38.35104        57.12772         1.15136
O         43.91307        42.41612        -2.17611
O         42.77691        43.21705        -2.54550
H         42.02744        42.57192        -2.55206
O         60.77741        58.85438         0.55460
H         60.30740        58.50449         1.34109
O         50.00926        58.78587         2.55924
H         50.86510        58.47077         2.92358
O         45.49824        57.02848        -1.64058
H         44.63968        57.19671        -2.11380
O         59.55469        62.42544        -2.04707
H         59.07341        62.16493        -2.85826
O         36.75083        43.81094        -0.56535
H         37.12919        44.06425        -1.43182
O         38.04021        48.77797        -0.79801
H         37.97218        47.89626        -1.22056
O         41.45492        54.63307        -1.87035
H         41.49218        53.65759        -1.98195
O         36.63357        54.59921        -1.76405
H         37.36241        55.15404        -2.11804
O         37.71517        49.92703         2.65370
H         37.49591        50.80836         3.01956
O         48.32635        51.87096         2.79928
H         49.15188        51.77211         3.33077
O         55.13444        49.02623        -1.73938
H         54.41169        49.67229        -1.91792
O         53.87129        51.59522         2.73391
H         53.31451        52.19912         3.27235
O         47.81752        50.27146        -1.24122
H         48.59806        49.74992        -1.53005
O         43.53702        46.37321        -1.05793
H         44.12319        46.98701        -1.54784
O         49.99528        46.04331        -1.98169
H         50.74836        45.56090        -2.38733
O         43.90636        39.45143        -2.42552
H         43.91018        40.41274        -2.65589
O         43.27308        45.26864         2.38192
H         42.54519        45.55366         3.01035
O         56.63314        51.96349         2.69812
H         55.76914        51.66298         3.07504
O         34.87100        50.23893         2.54744
H         34.87501        51.21612         2.70484
O         35.00992        53.08873         2.16640
H         34.21471        53.65289         2.28262
O         38.81074        47.67322         2.63684
H         39.63455        47.18336         2.94153
O         48.84775        42.28577        -2.23438
H         48.02779        42.76307        -2.48447
O         46.07848        56.29642         1.94816
H         46.39479        57.11012         2.39569
O         38.20694        57.97090        -2.35105
H         38.14494        58.76227        -2.92816
O         43.55362        56.78624         1.51127
H         44.27142        56.41635         2.08162
O         46.70575        37.77667        -2.22847
H         45.95515        38.19482        -2.70592
O         46.84079        54.85314        -1.37191
H         46.32510        55.54253        -1.86136
O         42.93036        56.99745        -2.09262
H         42.50410        56.14571        -2.36451
O         47.25640        37.43106         1.38130
H         47.97878        37.03226         1.91023
H         29.42567        56.48882        -0.49078
H         28.13236        58.70697        -0.54987
H         30.27457        62.45236        -0.47146
H         28.16653        61.17024        -0.52199
H         31.87097        52.22839        -0.25453
H         30.63120        54.38283        -0.40035
H         32.73199        62.52805        -0.31938
H         34.35264        47.98485         0.94406
H         33.11771        50.10669         0.22229
H         35.05146        62.67524         0.13657
H         37.20557        43.88506         1.43379
H         35.58878        45.88850         0.54034
H         37.83543        62.29730         0.71178
H         39.27809        39.50151        -0.13423
H         38.03989        41.64687         0.05209
H         40.16524        62.42186         0.28828
H         41.74489        35.26462        -0.19100
H         40.51542        37.38402        -0.28098
H         42.65641        62.49568         0.25770
H         45.14468        31.87078        -0.21253
H         42.98877        33.11035        -0.14158
H         45.14150        62.51418         0.32450
H         47.30920        33.08752        -0.32330
H         48.56251        35.21914        -0.23619
H         47.63380        62.52368         0.28929
H         49.83574        37.41583        -0.19850
H         51.07751        39.53518        -0.25481
H         50.11475        62.49777         0.22422
H         52.32450        41.68907        -0.28458
H         53.53382        43.85756        -0.46629
H         52.53329        62.46047        -0.12362
H         54.76459        46.03637        -0.38309
H         55.98474        48.12578        -0.07606
H         55.01275        62.41988        -0.37545
H         57.25896        50.13971         0.59685
H         58.52023        52.30793         0.54336
H         57.40893        62.35026        -0.87743
H         59.61415        54.35079        -0.19328
H         60.77032        56.38407        -0.77783
H         60.48377        61.56834        -0.42657
H         61.36449        58.28773        -2.42135
H         61.25628        60.70124        -2.99016
