         490
 CSIRO Nanostructure Databank - Neutral Graphene Oxide Data Set
C         37.51534        50.01248        -0.44257
C         36.44135        50.65695        -0.94063
C         37.73490        52.62430        -1.56599
C         36.53240        52.04648        -1.38040
C         40.06164        48.57502         0.20208
C         40.07293        49.95238        -0.05631
C         38.80457        50.78147        -0.23347
C         40.28324        52.53806        -1.29892
C         38.97975        51.77611        -1.40308
C         40.84460        53.34409        -2.22915
C         42.50521        48.50454         0.18816
C         41.25517        47.87911         0.37453
C         42.53067        49.88149        -0.13519
C         41.32529        50.59938        -0.17416
C         42.61797        52.74638        -0.73071
C         41.31554        52.10403        -0.27071
C         42.64679        54.27273        -0.63211
C         42.28330        53.57995        -1.96581
C         44.93002        45.77802         1.13855
C         43.75947        46.43017         0.75226
C         45.01291        48.49214         0.37578
C         43.76173        47.78822         0.41424
C         45.06310        49.84981        -0.05479
C         43.82515        50.48812        -0.63662
C         45.08666        52.65247        -0.73578
C         43.88225        52.00230        -0.62466
C         45.15183        54.11838        -0.77257
C         43.96929        54.89881        -0.57515
C         45.27352        56.94663        -0.39338
C         44.06831        56.30623        -0.38217
C         47.41155        44.33660         1.93238
C         47.36267        45.78870         1.72050
C         46.15160        46.46235         1.19100
C         47.49233        48.49567         0.63568
C         46.21563        47.81499         0.76240
C         47.50620        49.83769         0.12454
C         46.30664        50.51501        -0.19415
C         47.54154        52.55001        -0.90673
C         46.34962        51.91084        -0.64555
C         47.55859        53.97281        -1.41803
C         46.38318        54.75379        -0.88660
C         47.53185        56.82235        -1.68162
C         46.55978        56.21590        -0.58824
C         47.60773        58.32041        -1.59640
C         49.86363        44.38031         2.04355
C         48.59278        43.72125         2.21162
C         49.93863        45.67918         1.54685
C         48.70199        46.49030         1.51035
C         50.01087        48.54854         0.97076
C         48.69906        47.81995         0.88168
C         50.06053        49.83658         0.18340
C         48.79190        50.42209        -0.30103
C         50.14018        52.52780        -1.13292
C         48.80447        51.79449        -0.93183
C         50.07578        54.04581        -1.02066
C         48.86811        54.72192        -1.24795
C         50.06339        56.85306        -1.34144
C         48.86043        56.12757        -1.42809
C         50.06785        58.30035        -1.64612
C         48.76239        58.99614        -1.62623
C         52.78523        42.01703         1.18302
C         51.89249        43.19795         1.02021
C         52.43408        44.27142         1.97428
C         51.08381        43.57097         2.23556
C         52.39492        45.69500         1.62429
C         51.21099        46.31928         1.28843
C         52.50328        48.46860         0.79273
C         51.22083        47.67560         0.60872
C         52.50655        49.84024         0.43415
C         51.24701        50.49777         0.05711
C         52.53467        52.62074        -0.51651
C         51.20403        51.99987        -0.14837
C         52.53456        54.09684        -0.57015
C         51.28069        54.78030        -0.83838
C         52.47316        56.97124        -0.72264
C         51.27523        56.19925        -0.99561
C         52.52193        58.35488        -0.85119
C         51.36012        59.08580        -1.40234
C         52.44425        61.21680        -0.82903
C         51.32774        60.54203        -1.23819
C         54.91757        40.00346         2.07371
C         54.90293        41.41716         2.57395
C         53.72442        42.23767         2.11986
C         54.96236        44.34596         2.30888
C         53.66401        43.65570         2.66072
C         54.95207        45.79746         2.15355
C         53.62820        46.49770         1.80597
C         54.92900        48.55129         1.21819
C         53.69017        47.85087         1.22020
C         54.94316        49.91268         0.80708
C         53.73099        50.54411         0.43340
C         54.99781        52.72139         0.13578
C         53.79554        51.91486        -0.11372
C         54.95466        54.11721         0.00176
C         53.70751        54.78740        -0.30427
C         54.93943        57.02608         0.04853
C         53.63699        56.25402        -0.16301
C         54.93737        58.46595        -0.22191
C         53.71561        59.12434        -0.52667
C         54.87602        61.37876        -0.25015
C         53.66732        60.54027        -0.56729
C         55.10203        62.44636        -1.30234
C         57.36118        40.02653         1.85729
C         56.08399        39.36249         1.81103
C         57.37675        41.46964         2.04766
C         56.16879        42.18135         2.21812
C         57.40251        44.33138         1.96665
C         56.15805        43.61599         2.16779
C         57.41732        45.74853         1.79777
C         56.19792        46.49176         1.79309
C         57.41932        48.55880         1.27834
C         56.17886        47.86191         1.46765
C         57.42042        49.95218         0.98449
C         56.19056        50.64258         0.75530
C         57.43275        52.76896         0.46665
C         56.19865        52.03525         0.48410
C         57.41651        54.14785         0.23436
C         56.18883        54.87025         0.11309
C         57.44534        57.02286         0.04078
C         56.20493        56.27888         0.04349
C         57.41627        58.47053         0.03238
C         56.17460        59.19093        -0.10893
C         57.37633        61.39118        -0.01285
C         56.14742        60.59076        -0.15537
C         57.45623        62.70406        -0.67090
C         56.30918        63.08625        -1.42601
C         59.86928        37.33524         0.88618
C         58.63565        37.96671         1.19901
C         59.79456        40.12718         1.33571
C         58.55776        39.32512         1.50869
C         59.83686        41.34795         2.23141
C         58.60387        42.19097         2.03948
C         59.87363        44.33419         1.91976
C         58.63696        43.60892         1.99151
C         59.89326        45.72456         1.70189
C         58.65349        46.44163         1.61528
C         59.89940        48.54388         1.26967
C         58.65774        47.84904         1.39596
C         59.89820        49.95514         1.08258
C         58.66292        50.66245         0.91118
C         59.90580        52.77832         0.70788
C         58.67659        52.06051         0.66733
C         59.92681        54.19775         0.54827
C         58.71002        54.84419        -0.08230
C         59.97374        57.04187        -0.03582
C         58.65791        56.33822         0.06399
C         59.87374        58.52020         0.20710
C         58.65609        59.17473         0.18278
C         59.94456        61.36956        -0.00892
C         58.67248        60.65886         0.26800
C         59.94034        62.73672        -0.40200
C         58.70697        63.40060        -0.74011
C         60.00731        65.36283        -1.40276
C         58.78132        64.72566        -1.22375
C         62.32851        35.94018        -0.02908
C         62.39788        37.25657         0.71029
C         61.06884        38.00336         0.74046
C         62.39585        40.25853         0.93826
C         61.07231        39.47435         0.85885
C         62.40761        41.36066         2.00035
C         61.13503        42.13155         2.22779
C         62.43166        44.30830         1.85309
C         61.15192        43.63008         2.13751
C         62.39224        45.70666         1.59711
C         61.14463        46.42322         1.55681
C         62.37765        48.53095         1.15421
C         61.14749        47.82943         1.32965
C         62.37865        49.96706         1.08519
C         61.12997        50.66921         1.06867
C         62.34958        52.81334         1.04110
C         61.12859        52.08706         0.95387
C         62.34064        54.23476         1.00914
C         61.09780        54.91169         0.76995
C         62.37565        57.08531         0.79638
C         61.03202        56.40916         0.91139
C         62.39919        58.52803         0.34207
C         61.10024        59.26484         0.68551
C         62.38758        61.38082         0.14764
C         61.14696        60.69402         0.19916
C         62.41703        62.74523        -0.20574
C         61.19180        63.41194        -0.56381
C         62.55144        65.34519        -1.45081
C         61.21682        64.73348        -1.08115
C         62.55298        66.85212        -1.50609
C         64.72790        36.07577        -0.56335
C         63.42393        35.41646        -0.61010
C         64.82904        37.32960        -0.03638
C         63.53685        38.12657         0.13843
C         64.87710        40.01577         1.12331
C         63.65488        39.42027         0.90102
C         64.96766        41.35730         1.78195
C         63.69877        42.10870         2.11675
C         64.86198        44.22881         1.56383
C         63.67863        43.59910         1.95714
C         64.80837        45.61361         1.08178
C         63.59856        46.40302         1.29991
C         64.85682        48.50652         0.92823
C         63.61757        47.80573         1.09711
C         64.84995        49.98672         0.64658
C         63.58680        50.69322         1.04447
C         64.79885        52.85041         1.34420
C         63.59304        52.11414         1.14643
C         64.80557        54.27098         1.35539
C         63.55894        54.95708         1.16689
C         64.78220        57.13977         1.38082
C         63.53523        56.39783         1.05768
C         64.78604        58.63980         1.27725
C         63.59135        59.33224         0.78477
C         64.82762        61.45255         0.72334
C         63.60976        60.68805         0.53910
C         64.80947        62.83551         0.45036
C         63.66107        63.48030        -0.12776
C         64.89647        65.57837        -0.59498
C         63.71300        64.80923        -0.63400
C         64.94514        66.93944        -1.00027
C         63.68907        67.56792        -1.36372
C         66.94077        33.45570        -2.21842
C         65.89656        34.02035        -1.60208
C         67.20642        36.09169        -1.17596
C         65.83409        35.51684        -1.43695
C         67.39668        37.25280        -0.22040
C         66.10338        38.13662        -0.15050
C         67.29161        39.97041         1.19460
C         66.11092        39.31369         0.85402
C         67.46027        41.38736         1.26829
C         66.26831        42.10856         1.77576
C         67.33722        44.18582         0.91741
C         66.23862        43.62896         1.86139
C         67.40679        45.68985         0.99536
C         66.13759        46.38561         0.82466
C         67.33777        48.55810         0.94893
C         66.09440        47.84830         0.92280
C         67.31040        50.00328         1.11073
C         66.09786        50.67337         1.12976
C         67.36361        52.82163         1.74018
C         66.04081        52.07234         1.55117
C         67.33923        54.34215         1.89550
C         66.04771        55.02125         1.46412
C         67.29212        57.18904         1.49879
C         66.07412        56.42024         1.41724
C         67.29460        58.61945         1.41863
C         66.06968        59.35888         1.22857
C         67.30120        61.48507         1.25928
C         66.03943        60.74343         1.06458
C         67.31663        62.96741         1.03741
C         66.02297        63.64324         0.68367
C         67.41080        65.54756        -0.30348
C         66.07919        65.01605         0.09212
C         67.44967        66.95843        -0.83470
C         66.16714        67.68856        -0.95838
C         67.47617        69.75263        -1.13751
C         66.24319        69.07739        -1.10317
C         67.79632        33.66926        -5.01784
C         68.52588        34.34949        -4.03626
C         68.21657        34.20079        -2.54608
C         69.38963        36.41286        -2.27158
C         68.24888        35.61190        -1.93945
C         69.48038        37.71568        -1.74893
C         68.62353        38.06009        -0.65199
C         69.85372        40.19957        -0.36189
C         68.99806        39.15278         0.09677
C         69.76078        41.51713         0.15488
C         68.66173        42.03105         0.91990
C         69.92397        44.26592         1.23357
C         68.65284        43.49960         1.22264
C         69.87737        45.73468         1.02685
C         68.59901        46.40842         1.03328
C         69.80273        48.56851         0.81773
C         68.57120        47.85873         0.93155
C         69.76098        50.05504         0.52852
C         68.54954        50.75492         1.10372
C         69.73219        52.90772         0.71365
C         68.56778        52.11854         1.27538
C         69.76441        54.36206         1.13439
C         68.57236        55.05116         1.38267
C         69.78854        57.17003         1.44889
C         68.56169        56.47345         1.47025
C         69.80057        58.63237         1.80505
C         68.53556        59.35002         1.41704
C         69.80742        61.48208         1.20684
C         68.57585        60.73931         1.26182
C         69.82141        62.89168         0.92969
C         68.60853        63.61736         0.72003
C         69.86872        65.63435         0.07379
C         68.64137        64.92432         0.21554
C         69.87491        67.03237        -0.27314
C         68.71864        67.70010        -0.67664
C         69.98198        69.82244        -1.03303
C         68.70596        69.10935        -0.94436
C         70.05198        71.12565        -1.57000
C         69.15722        34.68082        -6.74040
C         68.11188        33.83443        -6.36853
C         69.89056        35.36255        -5.76536
C         69.58721        35.20065        -4.40692
C         71.30411        36.98177        -3.78911
C         70.38634        35.89654        -3.29264
C         71.40430        38.19970        -3.21589
C         70.55485        38.61444        -2.11269
C         71.81624        40.76985        -1.73570
C         70.73019        39.84576        -1.45147
C         71.89217        41.97693        -1.13410
C         70.75914        42.56095        -0.33664
C         72.36210        44.34497         0.63412
C         71.17545        43.45547         0.88933
C         72.30313        45.69124         0.66611
C         71.05802        46.43763         0.83455
C         72.25173        48.64632         0.74748
C         71.02772        47.88563         0.77220
C         72.26105        50.01212         0.83024
C         71.05355        50.78388         0.82197
C         72.24527        52.94749         0.94938
C         71.04390        52.17012         0.89213
C         72.22299        54.31407         0.98061
C         70.99821        55.06174         1.09753
C         72.24075        57.22237         1.32228
C         71.01196        56.47484         1.30750
C         72.25718        58.59803         1.34251
C         71.06381        59.36100         1.42236
C         72.27770        61.51056         1.17830
C         71.05381        60.76776         1.28573
C         72.28518        62.85167         0.92480
C         71.06643        63.58174         0.72516
C         72.32806        65.65053         0.04641
C         71.08764        64.94546         0.33614
C         72.35839        66.98368        -0.14860
C         71.12504        67.82545         0.05734
C         72.38591        69.89365        -0.68338
C         71.17678        69.18692        -0.61282
C         72.43730        71.18562        -1.20816
C         71.26642        71.79858        -1.66183
O         65.81448        41.42852         2.99415
O         61.19546        42.91965         3.45585
O         64.57714        57.96454         2.59058
O         48.00438        46.52520         2.82574
O         60.16305        40.21268        -0.07209
O         53.31790        51.95060        -1.53423
O         54.13055        46.47989         3.18069
O         69.27960        43.84914         2.49891
O         54.03747        56.68688         1.17925
O         67.25658        62.43191         2.40467
O         63.13825        41.33364         3.24809
O         69.25113        33.46100        -1.93302
O         65.33905        45.83473        -0.29774
O         57.93587        61.28095         1.36039
O         50.94195        58.65700        -2.76099
O         67.50859        65.79310        -1.74713
O         48.77110        50.60227        -1.79558
O         65.84838        64.84904         1.52590
O         66.68460        52.21499         2.88237
O         68.46472        39.24480         1.37995
O         47.35102        53.83922        -2.88362
H         48.12896        53.35470        -3.23915
O         71.26408        34.92005        -2.68669
H         70.67201        34.18946        -2.32175
O         50.15001        48.95212         2.37124
H         49.63109        48.32889         2.92538
O         41.63597        54.97206         0.02924
H         41.11237        54.31574         0.55759
O         67.59072        36.70657         1.10043
H         68.37570        36.12056         1.08170
O         41.01655        52.62676         1.05438
H         40.10377        52.31169         1.29329
O         71.05884        68.09620         1.50325
H         70.26691        68.65216         1.66226
O         71.50627        42.58740         1.98272
H         70.80588        42.71188         2.66804
O         60.47977        56.81522        -1.42657
H         59.83250        57.23771        -2.03267
O         62.79651        64.89500        -2.83635
H         63.65521        65.27796        -3.11706
O         59.74140        40.75981         3.56364
H         60.04108        41.45204         4.19718
O         69.58648        50.15852        -0.94582
H         70.34897        49.69718        -1.35774
O         47.01547        56.53656        -2.98590
H         47.10117        55.56468        -3.16442
O         51.09520        47.40351        -0.81844
H         51.92846        46.99366        -1.13047
O         64.87495        50.10484        -0.83502
H         65.61958        49.55208        -1.15711
O         62.54037        58.49665        -1.11179
H         61.90008        57.82213        -1.46041
O         65.47918        36.05759        -2.76312
H         65.52338        37.03894        -2.68855
O         63.19997        38.51723        -1.23833
H         62.81508        39.42934        -1.21300
O         50.56636        52.27694        -2.48416
H         50.31416        51.34693        -2.69484
O         61.03056        59.32833         2.14923
H         60.24881        59.87079         2.39134
O         67.40148        54.60472         3.33437
H         66.90140        53.87634         3.77347
O         50.82161        52.54302         1.14894
H         51.25786        52.02001         1.85441
O         66.99739        43.78522        -0.43066
H         66.30695        44.41934        -0.75715
O         54.87846        41.33756         4.03186
H         54.62772        42.23557         4.36719
O         43.83954        50.14052        -2.07490
H         44.73138        50.36215        -2.41982
O         66.01036        38.79317        -1.45516
H         65.05225        38.99419        -1.60726
O         58.90392        54.58094        -1.53267
H         59.73224        55.05419        -1.78653
O         39.08861        50.94313        -2.59016
H         39.20316        51.52897        -3.36661
O         62.48455        41.03637        -0.31730
H         61.55182        41.15083        -0.63716
O         47.32332        56.35569         0.65784
H         46.76310        56.02310         1.39070
O         62.75891        36.99589         2.09390
H         62.11631        36.35813         2.46790
O         38.58763        51.55623         0.99258
H         38.27864        50.93693         1.68659
O         70.06768        43.47776        -1.23888
H         69.68259        42.95148        -1.97070
O         69.49339        52.96255        -0.73664
H         69.48763        52.02461        -1.06025
O         66.54292        44.01939         3.20955
H         66.24659        43.28674         3.79752
O         69.79696        58.65613         3.28947
H         69.66587        59.58849         3.56698
O         51.02289        42.63078         3.28724
H         50.29234        42.88313         3.88778
O         60.55449        56.64090         2.26673
H         60.75316        57.58436         2.50294
O         53.49944        43.66148         4.09772
H         52.63457        43.22022         4.27058
O         54.62268        62.02987         1.04312
H         55.49083        62.28441         1.42268
H         37.41737        48.98022        -0.07563
H         35.46956        50.14764        -1.01801
H         37.82398        53.65819        -1.93179
H         35.60081        52.60052        -1.56666
H         39.11264        48.02966         0.29809
H         40.33579        53.74386        -3.11727
H         41.19923        46.81264         0.62884
H         42.99132        53.65990        -2.80553
H         44.86991        44.72397         1.43949
H         42.82417        45.85593         0.75204
H         45.32117        58.02364        -0.17665
H         43.13903        56.86825        -0.21214
H         46.48855        43.74251         1.89549
H         46.65717        58.87301        -1.63296
H         48.60377        42.64413         2.43622
H         48.74797        60.09456        -1.66647
H         52.65378        41.09271         0.60580
H         51.50349        43.47135         0.02594
H         52.41668        62.31132        -0.73491
H         50.42659        61.09917        -1.52656
H         53.96399        39.45707         2.03662
H         54.28298        62.70713        -1.98949
H         56.05321        38.30178         1.52296
H         56.39895        63.90738        -2.15280
H         59.85106        36.23915         0.79641
H         57.74609        37.32694         1.27792
H         60.00448        66.37675        -1.82448
H         57.85854        65.26286        -1.48229
H         61.37965        35.38502        -0.06404
H         61.63247        67.37521        -1.79972
H         63.34487        34.45617        -1.13908
H         63.66186        68.65705        -1.50938
H         66.97107        32.36436        -2.35728
H         65.03910        33.40562        -1.28929
H         67.45408        70.83939        -1.29605
H         65.32642        69.67332        -1.20861
H         66.96546        33.01244        -4.72205
H         69.14072        71.62166        -1.93076
H         69.40684        34.81487        -7.80241
H         67.53371        33.30188        -7.13681
H         70.70833        36.02802        -6.07664
H         72.01924        36.70673        -4.57848
H         72.16075        38.90551        -3.58892
H         72.62987        40.44616        -2.40061
H         72.74448        42.63827        -1.35169
H         73.33694        43.85030         0.50978
H         73.23456        46.25467         0.51593
H         73.21427        48.11971         0.74723
H         73.22927        50.52507         0.90816
H         73.21924        52.43915         0.94625
H         73.18313        54.84594         0.98377
H         73.20069        56.69593         1.24724
H         73.22718        59.10434         1.24410
H         73.23728        60.99505         1.31312
H         73.24886        63.37318         0.86115
H         73.25939        65.07556        -0.05429
H         73.31420        67.47163        -0.38582
H         73.31358        69.43614        -0.31351
H         73.39665        71.71847        -1.26038
H         71.30103        72.81226        -2.08420
