         234
 CSIRO Nanostructure Databank - Neutral Graphene Oxide Data Set
C          1.63568         2.54420        -2.60274
C          1.56681         3.88729        -2.23695
C          2.82474         1.83994        -2.44594
C          2.70458         4.55299        -1.73501
C          1.44967         6.67799        -1.33175
C          1.38220         8.02495        -0.91517
C          2.57878         5.88769        -1.15778
C          2.44111         8.68200        -0.29154
C          1.24811        10.86481        -0.22952
C          0.96275        12.20230        -0.05880
C          2.49712        10.12246        -0.14304
C          1.97225        13.22069        -0.01246
C          0.90263        15.27275         0.91477
C          1.06382        16.61889         1.09633
C          2.04682        14.45343         0.60377
C          2.35283        17.25023         0.85114
C          2.41034        18.67931         0.61027
C          4.01430         2.47636        -2.02180
C          3.96109         3.87953        -1.70101
C          5.14832         1.60291        -1.77160
C          5.10888         4.61429        -1.18001
C          3.64753         6.38718        -0.28419
C          3.58244         7.87478         0.16838
C          4.98553         5.77724        -0.38144
C          4.83530         8.52273         0.58930
C          3.73137        10.68047         0.27103
C          3.92141        12.10183         0.23914
C          4.85161         9.89374         0.73972
C          4.82965        12.80437         0.97589
C          3.35554        15.03062         1.17875
C          3.49343        16.48087         0.76952
C          4.71909        14.26937         1.14898
C          4.75281        17.04250         0.16331
C          3.58970        19.29963         0.32744
C          4.81576        18.55152         0.19986
C          6.46485         2.03129        -1.83064
C          6.42183         4.16173        -1.40628
C          7.65495         1.48017        -1.30411
C          7.51586         4.53062        -0.62147
C          6.12373         6.35314         0.24101
C          6.00810         7.67623         0.93366
C          7.37689         5.68957         0.17829
C          7.32242         8.41135         1.32455
C          6.03207        10.58562         1.33839
C          6.03625        12.09850         1.47053
C          7.34067         9.89360         1.34283
C          7.32037        12.81401         1.25400
C          6.05436        14.98957         1.01989
C          6.05869        16.39369         0.58391
C          7.31161        14.19141         0.92440
C          7.25614        17.01967         0.29607
C          6.02035        19.17187        -0.00522
C          7.26320        18.43885        -0.03951
C          8.81322         2.26132        -1.01947
C          8.79467         3.75892        -0.79929
C         10.00275         1.56211        -0.79285
C         10.00521         4.34939        -0.14660
C          8.56786         6.26605         0.85652
C          8.58182         7.69635         1.15920
C          9.89660         5.56957         0.72515
C          9.83235         8.36881         1.51153
C          8.51586        10.61619         1.42450
C          8.53453        12.07539         1.27347
C          9.79406         9.88525         1.67446
C          9.75370        12.78439         1.08245
C          8.52465        14.88003         0.69021
C          8.52347        16.30704         0.38393
C          9.74413        14.15898         0.78890
C          9.70449        16.98620         0.10449
C          8.45805        19.09033        -0.27079
C          9.70304        18.38923        -0.22074
C         11.22665         2.14060        -0.31362
C         11.21711         3.53611         0.07145
C         12.38849         1.39803        -0.17482
C         12.37758         4.19437         0.45925
C         11.17050         6.31280         0.95196
C         11.14463         7.70391         1.28191
C         12.36431         5.60675         0.77789
C         12.33394         8.45463         1.32380
C         11.09655        10.63179         1.56454
C         11.06625        12.11046         1.28746
C         12.34629         9.88729         1.28448
C         12.29155        12.73350         0.73742
C         11.03216        14.87749         0.63625
C         11.02543        16.33753         0.25283
C         12.25015        14.08692         0.36899
C         12.21926        16.94008        -0.41200
C         10.91261        19.05541        -0.40516
C         12.18035        18.40598        -0.53727
C         13.57708         1.96673         0.55855
C         13.62898         3.47504         0.46138
C         14.88816         1.27904         0.26929
C         14.82282         4.16639         0.38938
C         13.64959         6.24349         1.06229
C         13.63255         7.75917         1.33259
C         14.89224         5.59110         0.58600
C         14.85376         8.50804         1.05219
C         13.53112        10.59505         1.01663
C         13.50527        12.00177         0.67957
C         14.80704         9.90783         0.94452
C         14.68675        12.65144         0.20413
C         13.39138        14.72755        -0.15983
C         13.31827        16.10258        -0.64703
C         14.60807        13.99302        -0.22665
C         14.52289        16.60854        -1.26428
C         13.29767        19.26868        -0.57976
C         14.57021        18.83940        -1.04559
C         16.06680         1.94668         0.15507
C         16.06023         3.43168         0.07600
C         17.35544         1.27141         0.04826
C         17.34591         4.18538         0.15768
C         16.08638         6.31015         0.50747
C         16.05816         7.78903         0.59129
C         17.36183         5.65384         0.38441
C         17.33675         8.55963         0.46878
C         16.01696        10.64888         0.78353
C         15.98809        11.98433         0.30663
C         17.29905         9.93195         1.16038
C         17.18598        12.64041        -0.04021
C         15.80625        14.61448        -0.81663
C         15.76835        16.05797        -1.11385
C         17.13151        13.88772        -0.80604
C         16.99215        16.89719        -0.96128
C         15.86586        19.22774        -0.78109
C         17.01365        18.39851        -1.12983
C         18.54857         1.93376         0.16090
C         18.56518         3.39061         0.44674
C         19.84222         1.26430         0.22626
C         19.84586         4.13451         0.54337
C         18.58317         6.32831         0.42202
C         18.66925         7.83868         0.23717
C         19.83277         5.62047         0.49167
C         19.82990         8.43235         1.06918
C         18.59365        10.74250         0.96544
C         18.50703        12.22476         0.55905
C         19.88521         9.96987         0.88980
C         19.69513        12.71606        -0.24462
C         18.38912        14.69266        -1.15775
C         18.29739        16.17949        -0.78458
C         19.68181        14.02982        -0.71179
C         19.57333        16.95261        -1.00477
C         18.21193        19.01224        -1.42060
C         19.46593        18.31723        -1.56119
C         21.01579         1.93638         0.29288
C         21.10081         3.42978         0.07939
C         22.31096         4.13492         0.63921
C         21.05928         6.26769         0.64913
C         21.11022         7.71995         0.66864
C         22.27252         5.47656         0.81966
C         22.22572         8.41099         0.28916
C         21.05869        10.57261         0.20709
C         20.95970        11.92357        -0.46968
C         22.17360         9.81924        -0.00077
C         22.18925        12.78149        -0.30674
C         20.89409        14.72700        -0.96645
C         20.86933        16.19487        -1.20986
C         22.13660        14.10700        -0.62191
C         21.91134        16.85832        -2.00147
C         20.58527        18.91412        -2.10616
C         21.78314        18.17013        -2.35541
O          5.82734        11.26655         2.63972
O         11.26784        15.91775         1.65199
O         17.55405        16.52911         0.40146
O         20.54683        16.87014         0.07985
O          9.75451         4.55317        -1.58984
O         16.50983         8.45147        -0.71375
O          3.15639        12.83574        -0.66481
O          5.44879        14.72183         2.34192
O          6.41869         7.75538         2.31612
O         19.19143         3.64772         1.75817
O         14.44265        17.79315        -1.98306
O          9.74862         9.03136         2.84656
O         16.74757         3.88717        -1.15368
O          9.11316         5.37136         1.93988
O          3.22085         6.76285         1.05258
O          6.64940         3.28517        -2.46021
O         19.48132        10.64723         2.13323
O         11.24874        11.60497         2.65551
O         13.77029         6.77810         2.42058
O         16.25683        13.79807        -1.99640
O         18.57681        12.98945         1.80769
H         19.24455        12.53925         2.37730
O         17.20038         9.61199         2.57845
H         17.20837        10.45411         3.08156
O         20.92720        11.58101        -1.91880
H         20.80561        12.42130        -2.41268
O         21.13036         3.63394        -1.37226
H         21.95909         3.24040        -1.71636
O         18.52305        14.70745        -2.60915
H         17.66241        14.37742        -2.97241
O          4.65140        16.68357        -1.27724
H          5.30105        17.23899        -1.76023
O          2.98926        15.03830         2.59678
H          3.81867        15.18114         3.10968
O         19.03012         8.06784        -1.14287
H         18.21130         7.94973        -1.67725
O         19.60682         8.11773         2.44886
H         18.97646         8.78603         2.81584
O         13.31018         1.67675         1.98630
H         12.48679         2.14960         2.23430
H          0.73653         2.03044        -2.96968
H          0.60040         4.40477        -2.29168
H          2.85430         0.76526        -2.67507
H          0.60534         6.29950        -1.92357
H          0.49389         8.59189        -1.22435
H          0.35535        10.22279        -0.27668
H         -0.09036        12.48790         0.08641
H         -0.10616        14.83487         0.86617
H          0.18701        17.26481         1.24985
H          1.48370        19.26417         0.70324
H          4.92903         0.56116        -1.49359
H          3.63466        20.39340         0.21750
H          7.69933         0.40127        -1.09088
H          6.06438        20.26864        -0.09034
H         10.00174         0.47771        -0.98230
H          8.46253        20.16909        -0.48558
H         12.38965         0.33027        -0.44093
H         10.88805        20.14792        -0.53497
H         14.88633         0.17838         0.30279
H         13.14993        20.31356        -0.26527
H         17.35077         0.17618        -0.06609
H         16.06046        20.16772        -0.24263
H         19.84262         0.16373         0.26996
H         18.22428        20.10455        -1.55792
H         21.95946         1.37314         0.37095
H         23.24319         3.57339         0.80590
H         23.17904         6.00198         1.15617
H         23.14103         7.86699         0.01414
H         23.03416        10.25627        -0.52729
H         23.14862        12.30771        -0.05514
H         23.04700        14.72281        -0.58762
H         22.78755        16.27657        -2.32224
H         20.52533        19.95283        -2.46202
H         22.59152        18.66205        -2.91520
