         324
 CSIRO Nanostructure Databank - Neutral Graphene Oxide Data Set
C         30.34046        57.06045        -0.68245
C         30.38853        58.56514        -0.74566
C         29.22637        59.26044        -1.07203
C         30.43004        61.35920        -1.10986
C         29.24469        60.66078        -1.23201
C         32.77309        52.74057         0.10649
C         32.37030        54.05084         0.38802
C         31.52455        54.95132        -0.29577
C         32.75730        57.14054         0.10166
C         31.61105        56.37578        -0.21494
C         32.79683        58.57274        -0.13346
C         31.60371        59.26659        -0.55007
C         32.86322        61.38182        -0.70230
C         31.63753        60.68116        -0.77667
C         35.35378        48.62401         0.37273
C         35.32790        50.00291         0.56061
C         34.11630        50.75566         0.39576
C         35.20561        52.89519         1.04673
C         33.98552        52.12840         0.59535
C         35.28334        54.37165         0.81337
C         34.16236        55.13035         0.91371
C         35.27323        57.24451         0.77119
C         34.10395        56.45377         0.22406
C         35.23136        58.72676         0.49618
C         33.99852        59.31844        -0.04403
C         35.29503        61.44613        -0.31620
C         34.06108        60.71886        -0.37532
C         37.73961        44.27647        -0.17703
C         37.72593        45.66088         0.45406
C         36.55652        46.50260         0.24237
C         37.80711        48.56314         0.82001
C         36.56295        47.87015         0.49719
C         37.76393        50.00681         0.96913
C         36.56620        50.68913         0.84052
C         37.75901        52.88695         0.52084
C         36.52067        52.16136         1.03470
C         37.75223        54.36958         0.74807
C         36.55983        55.09418         0.70899
C         37.78176        57.31650         1.14993
C         36.54588        56.51398         0.81746
C         37.80923        58.63961         0.38618
C         36.52765        59.36292         0.11588
C         37.77944        61.48768        -0.11484
C         36.54304        60.82609        -0.10423
C         40.31192        39.99756        -0.13341
C         40.29719        41.42403        -0.06284
C         39.08368        42.15882        -0.10134
C         40.27406        44.28065         0.06801
C         39.05526        43.54978        -0.01435
C         40.30159        45.71714         0.29207
C         39.05428        46.39054         0.73712
C         40.29160        48.55022         1.11892
C         39.00698        47.85878         0.88450
C         40.32574        50.04702         1.29841
C         39.00900        50.76661         1.29287
C         40.31758        52.91763         0.65851
C         39.03946        52.25795         1.05245
C         40.23958        54.34899         0.15760
C         39.05432        55.05195         0.80361
C         40.23533        57.26100         0.28499
C         39.08199        56.53138         0.94087
C         40.30005        58.71086         0.81720
C         39.04108        59.43400         0.43181
C         40.26687        61.51880         0.13402
C         39.02447        60.81336         0.15009
C         42.79904        35.73333        -0.33364
C         42.74991        37.13057        -0.10511
C         41.53901        37.85597        -0.17775
C         42.74245        39.97979         0.44127
C         41.49420        39.25938        -0.02383
C         42.78412        41.44429         0.06026
C         41.53463        42.15344        -0.04824
C         42.73980        44.32038        -0.24271
C         41.49445        43.56897        -0.06713
C         42.74430        45.78406        -0.05472
C         41.47943        46.44310         0.16918
C         42.69777        48.67882         0.20321
C         41.54352        47.84693         0.65458
C         42.79721        50.10391         0.49807
C         41.59931        50.82457         0.99247
C         42.70496        52.92445        -0.02747
C         41.50393        52.25814         0.62725
C         42.75426        54.40823         0.25427
C         41.54296        55.11037         0.32304
C         42.75288        57.24034         0.34139
C         41.54305        56.52034         0.38264
C         42.75162        58.69626         0.30032
C         41.55316        59.41952         0.39389
C         42.74716        61.52673         0.10881
C         41.51451        60.83957         0.21987
C         45.29644        32.92923        -0.57377
C         44.06384        33.62299        -0.61028
C         45.23154        35.66016         0.25078
C         43.99475        34.98333        -0.29405
C         45.27243        37.11651        -0.13665
C         43.99981        37.88016         0.01170
C         45.31468        39.99085        -0.06096
C         44.01025        39.24014         0.09962
C         45.25858        41.45096         0.33506
C         43.99871        42.11800         0.12910
C         45.26443        44.29490         0.28300
C         44.05340        43.56447        -0.10928
C         45.19855        45.74984         0.34507
C         43.95130        46.45531        -0.00567
C         45.24828        48.66132         0.00003
C         43.99437        47.92259        -0.12553
C         45.24191        50.04693         0.08539
C         43.99230        50.78179         0.24533
C         45.21810        52.91953         0.17209
C         44.01598        52.21965         0.22082
C         45.23072        54.37277         0.14253
C         43.98857        55.10419         0.22761
C         45.21763        57.25387         0.07705
C         43.98858        56.53504         0.24411
C         45.22226        58.69208        -0.00373
C         43.98252        59.39322         0.12398
C         45.21371        61.51158         0.13224
C         43.96926        60.82578         0.10242
C         46.49755        33.56067        -0.28780
C         47.75026        35.63168         0.17924
C         46.55129        34.95725         0.00489
C         47.83056        37.07321         0.26363
C         46.56245        37.82531         0.04380
C         47.76984        39.97443         0.60969
C         46.44525        39.21676         0.63399
C         47.73310        41.45991         0.60478
C         46.43528        42.16569         0.50599
C         47.72350        44.33368         0.53976
C         46.45642        43.61636         0.50759
C         47.75750        45.72795         0.41393
C         46.50445        46.50733         0.42971
C         47.76838        48.64594         0.15891
C         46.52606        47.88840        -0.19670
C         47.74189        50.07080         0.16237
C         46.48759        50.78442         0.11220
C         47.70830        52.91644         0.09947
C         46.47642        52.19514         0.15907
C         47.69985        54.34278         0.01151
C         46.44323        55.07116         0.05457
C         47.62942        57.22465        -0.27437
C         46.43426        56.51699        -0.01376
C         47.62274        58.63504        -0.45684
C         46.43893        59.41743        -0.20823
C         47.61456        61.67765         0.31695
C         46.44469        60.86326         0.00394
C         48.99402        37.79898         0.28879
C         50.22174        40.06828         0.14596
C         48.95246        39.27936        -0.05645
C         50.22756        41.44683         0.23932
C         48.98176        42.21323         0.36537
C         50.25843        44.32418         0.71783
C         48.96798        43.58310         0.47118
C         50.22376        45.77838         0.32616
C         48.99494        46.46195         0.27927
C         50.21935        48.60208         0.26884
C         48.98711        47.90730         0.22649
C         50.22701        50.07403         0.57673
C         48.95361        50.79568         0.22976
C         50.19393        52.91228        -0.05863
C         48.95770        52.20795         0.09756
C         50.17034        54.32991        -0.21176
C         48.91763        55.02378        -0.16771
C         50.20029        57.23502        -0.42377
C         48.88165        56.46758        -0.47178
C         50.10051        58.71542        -0.34934
C         48.86797        59.27152        -0.75707
C         50.17959        61.86846         0.26606
C         48.89143        61.43004        -0.15055
C         51.45487        42.19503         0.14481
C         52.67322        44.32553         0.04641
C         51.48841        43.58795         0.23392
C         52.69560        45.74937         0.09299
C         51.44473        46.47252         0.19768
C         52.68666        48.61309         0.07440
C         51.44536        47.90163         0.17950
C         52.68721        50.04671         0.00636
C         51.47131        50.77653         0.10992
C         52.68430        52.84515        -0.30836
C         51.44977        52.16836        -0.09217
C         52.60200        54.25940        -0.83296
C         51.40307        55.05234        -0.35208
C         52.69516        57.13458        -0.23029
C         51.45451        56.45728        -0.25388
C         52.86870        58.44818         0.28212
C         51.06879        59.56291         0.22201
C         52.64845        61.43521         0.47164
C         51.31480        60.99734         0.22454
C         53.89308        46.47098        -0.03414
C         55.13283        48.60991        -0.20539
C         53.91474        47.89387        -0.04630
C         55.16986        50.01267        -0.25906
C         53.91921        50.74214        -0.16000
C         55.22075        52.87736        -0.07926
C         53.90521        52.15281        -0.27392
C         55.24561        54.27776        -0.62652
C         53.94523        54.98713        -0.76559
C         55.23363        57.15319        -0.22525
C         53.95719        56.39607        -0.31566
C         55.19848        58.64884        -0.49550
C         53.95198        59.28201         0.07789
C         55.12605        61.37010         0.46064
C         53.88550        60.69961         0.37269
C         56.40198        50.71257        -0.44602
C         57.67596        52.84695        -0.51310
C         56.47917        52.11649        -0.42453
C         57.73314        54.28695        -0.41981
C         56.51026        55.03160        -0.41656
C         57.71377        57.16007        -0.25698
C         56.51497        56.42768        -0.41274
C         57.67001        58.58759        -0.01465
C         56.45374        59.31199        -0.00811
C         57.60902        61.34864         0.64748
C         56.39322        60.68772         0.36816
C         58.93811        55.01460        -0.34407
C         60.14828        57.16269         0.00138
C         58.95165        56.43529        -0.21919
C         60.12945        58.55531         0.25868
C         58.88438        59.26899         0.27934
C         60.07844        61.33384         0.85586
C         58.85092        60.66631         0.58896
C         61.32584        59.27533         0.52448
C         61.28708        60.63976         0.81478
O         49.58056        56.82158        -1.70845
O         43.08145        48.39711        -1.18009
O         48.89888        60.53639        -1.27305
O         45.72136        46.33831         1.63254
O         39.41862        55.70625         2.08919
O         51.85664        58.91157         1.15372
O         41.19846        47.90277         2.07296
O         37.19338        58.57981        -0.95653
O         39.98188        54.30498        -1.29110
O         54.64418        56.64295         1.01038
O         43.51604        43.93779        -1.43572
O         38.30923        45.67583         1.78609
O         54.73342        54.62205        -1.95966
O         41.20915        50.48097         2.36507
O         35.06909        58.20276         1.85783
O         38.90535        51.72805         2.39467
O         46.04458        37.53409        -1.30571
O         35.89456        52.52283         2.29525
O         33.01620        54.62606         1.50387
O         47.98389        40.65578         1.87569
O         37.73498        52.65554        -0.92349
H         38.45492        53.20294        -1.32669
O         39.83211        57.23219        -1.15732
H         39.96048        55.24422        -1.60606
O         55.17252        58.76179        -1.95669
H         55.24389        59.71294        -2.18332
O         29.24191        56.63340         0.14519
H         29.43441        56.90155         1.06711
O         45.05897        35.67642         1.70459
H         44.98998        34.74680         2.00696
O         48.68387        39.35189        -1.49698
H         47.78367        38.99047        -1.66842
O         46.60739        47.61133        -1.64342
H         46.53535        48.46592        -2.11951
O         40.73485        58.10331        -1.88863
H         40.14303        58.85347        -2.14426
O         50.38506        44.35403         2.18873
H         50.31249        43.42843         2.50699
O         34.49165        56.16055        -1.16678
H         34.59423        57.01504        -1.63873
O         52.28905        54.07472        -2.25293
H         53.15297        54.01451        -2.72667
O         42.47431        52.80173        -1.47287
H         41.64139        53.29202        -1.67919
O         37.75294        57.68918         2.55832
H         37.88120        56.85869         3.07155
O         45.66026        40.04434        -1.47625
H         44.92343        40.47468        -1.95883
O         50.29162        50.14101         2.06527
H         51.03328        49.56414         2.34904
O         40.36582        58.62363         2.27208
H         39.46447        58.37999         2.60883
O         42.66565        39.96972         1.91138
H         41.79177        40.33809         2.16156
O         37.48622        44.38961        -1.58632
H         36.65499        44.89144        -1.71328
O         55.28821        53.09983         1.37237
H         55.38034        52.22396         1.80338
O         46.06813        39.00284         2.00457
H         46.52331        39.69285         2.54338
H         30.10494        56.68003        -1.71625
H         28.28788        58.70474        -1.20619
H         30.45603        62.44677        -1.26900
H         28.31467        61.19017        -1.48192
H         32.16806        52.14485        -0.59538
H         30.72715        54.54457        -0.93787
H         32.88092        62.46095        -0.91470
H         34.42088        48.08648         0.14674
H         33.22870        50.19667         0.05958
H         35.26072        62.53288        -0.48482
H         36.91463        43.66296         0.29219
H         35.64767        46.04382        -0.17874
H         37.80666        62.56767        -0.32354
H         39.36012        39.47110        -0.30565
H         38.13529        41.60795        -0.19147
H         40.26355        62.60551        -0.03404
H         41.86029        35.21157        -0.58044
H         40.60610        37.31637        -0.40535
H         42.75365        62.62442         0.03859
H         45.30316        31.85911        -0.82561
H         43.15550        33.08929        -0.92704
H         45.20315        62.60251         0.27454
H         47.43777        32.99176        -0.34275
H         48.69324        35.06425         0.12161
H         47.45000        62.52006         1.00538
H         49.96781        37.29027         0.36601
H         51.18215        39.53911         0.04290
H         50.28243        62.83051         0.78855
H         52.38367        41.64864        -0.08279
H         53.61064        43.78869        -0.16765
H         52.76932        62.52366         0.59857
H         54.84253        45.92475        -0.13770
H         56.07126        48.04372        -0.30217
H         55.13856        62.44854         0.67984
H         57.32009        50.12356        -0.59457
H         58.62289        52.29809        -0.63454
H         57.59683        62.41477         0.92003
H         59.89685        54.47460        -0.33125
H         61.10975        56.62778         0.02366
H         60.06651        62.40648         1.09708
H         62.28859        58.74466         0.50325
H         62.22499        61.17485         1.02059
