         317
 CSIRO Nanostructure Databank - Neutral Graphene Oxide Data Set
C         30.46050        31.41137         0.26645
C         30.57851        32.57892         0.65199
C         30.61992        35.64232         1.93445
C         30.70825        36.88308         2.10387
C         30.70768        40.16592         2.53662
C         30.72645        41.40993         2.47003
C         32.69311        28.92548        -1.40144
C         31.64639        29.40099        -0.95006
C         32.74595        31.51936        -0.44961
C         31.33706        30.86688        -0.84265
C         32.79238        33.06549        -0.31107
C         31.52297        33.66131         0.40581
C         32.88063        35.78928         0.99644
C         31.57156        35.03230         0.98019
C         32.91792        37.12211         1.38418
C         31.73004        37.82269         1.86290
C         32.85203        40.12410         1.36153
C         31.60890        39.27615         1.80248
C         32.97087        41.55577         1.75179
C         31.79198        42.30033         2.09362
C         32.69653        44.35060         1.18805
C         31.87004        43.70793         1.93985
C         35.42521        27.41007        -2.18082
C         35.31945        28.86045        -1.92048
C         34.00616        29.54316        -1.57540
C         35.35042        31.57423        -0.76802
C         34.06287        30.82847        -0.77169
C         35.34996        33.07420        -0.46049
C         34.11553        33.48762         0.42722
C         35.45513        35.70547         0.91508
C         34.13900        34.98853         0.84978
C         35.49726        37.21499         1.06100
C         34.21082        37.91381         1.57732
C         35.41979        40.09002         1.00957
C         34.07578        39.32176         0.87452
C         35.32173        41.59634         0.90725
C         34.26525        42.17273         1.58298
C         35.05881        44.46904        -0.04463
C         34.07477        44.37624         1.10546
C         35.40628        45.84285        -0.53249
C         37.56419        27.33143        -0.93866
C         36.34140        26.92147        -1.40232
C         37.85641        28.72472        -1.50410
C         36.56027        29.54025        -1.49857
C         37.81039        31.73591        -1.24979
C         36.53211        30.91583        -1.12883
C         37.84865        32.99321        -0.38379
C         36.69200        33.59104         0.05877
C         37.92295        35.84506         0.07692
C         36.73621        35.00081         0.52535
C         37.67445        37.26915        -0.41494
C         36.62817        37.98722         0.43302
C         37.85493        40.20628         0.20511
C         36.49198        39.47238         0.08815
C         37.69661        41.72917        -0.07113
C         36.63109        42.38300         0.90841
C         37.73479        44.42944         0.06694
C         36.43790        43.85200         0.42869
C         37.68899        46.60061        -1.41191
C         36.36796        46.53792        -0.84557
C         39.63059        24.36720        -0.37272
C         38.65680        25.14033        -0.26226
C         39.95840        27.17715        -0.27020
C         38.51624        26.63100        -0.00876
C         40.26175        28.64221        -0.61637
C         38.92036        29.44214        -0.64990
C         40.21229        31.60082        -0.33233
C         39.14315        30.87665        -1.18368
C         40.36571        33.02846        -0.87212
C         39.08524        33.75782        -0.49507
C         40.30257        35.88927        -0.88840
C         39.06861        35.12223        -0.47756
C         40.26303        37.37103        -0.45027
C         38.93626        38.11963        -0.64295
C         40.11148        40.26790        -1.17007
C         38.91038        39.48694        -0.62797
C         40.11774        41.76351        -0.87876
C         39.07651        42.44304        -0.02615
C         40.18517        44.75774        -0.37946
C         38.91297        43.94549        -0.46767
C         40.18271        46.18994        -1.03913
C         38.84778        46.87933        -0.68516
C         39.80759        48.21265         1.25702
C         38.99342        47.67716         0.47122
C         42.33993        24.49905         0.41923
C         40.88789        24.88283         0.33335
C         42.75445        27.41338         1.03152
C         40.95203        26.24598        -0.41222
C         42.68550        28.64962         0.40330
C         41.33007        29.37397         0.33193
C         42.67323        31.57842         0.42633
C         41.48663        30.81543        -0.13136
C         42.72661        33.06662         0.08145
C         41.58383        33.72850        -0.30893
C         42.80013        35.98127        -0.05456
C         41.51111        35.19060        -0.24861
C         42.83177        37.41549        -0.47127
C         41.53407        38.11564        -0.93059
C         42.54824        40.33944        -0.05048
C         41.37436        39.58800        -0.54674
C         42.82902        41.71449         0.10273
C         41.17460        42.52544        -1.31793
C         42.69168        44.65557        -0.55814
C         41.39102        43.97108        -0.95350
C         42.60009        46.10405        -0.17107
C         41.47014        46.84176        -0.50712
C         42.30380        48.34493         1.87487
C         41.19258        48.48136         1.02813
C         43.31805        25.12717         0.84260
C         45.01428        27.03136         1.79266
C         43.97218        26.49134         0.81672
C         45.15509        28.73950         1.25550
C         43.94449        29.42292         0.67036
C         45.23974        31.61239         0.71305
C         44.00781        30.84289         0.12107
C         45.29919        33.05056         0.08554
C         43.97643        33.80811         0.21302
C         45.30665        35.84886        -0.32888
C         44.02335        35.17187        -0.00655
C         45.32362        37.29428        -0.68485
C         44.02558        38.02667        -0.68828
C         45.25088        40.19892        -0.31465
C         44.15642        39.45848        -1.13118
C         45.27600        41.70307        -0.52935
C         43.97643        42.45568        -0.50002
C         45.10888        44.57423         0.09187
C         43.96324        43.93300        -0.25983
C         45.05544        45.98766         0.69349
C         43.72890        46.67594         0.55588
C         43.30847        47.75518         1.29085
C         47.46480        27.20142         1.51821
C         46.41981        26.56984         1.70308
C         47.78919        28.47537         0.94896
C         46.57239        29.42383         1.26590
C         47.84580        31.69448         0.83041
C         46.57351        30.81096         0.45650
C         47.81779        33.14715         0.28491
C         46.50051        33.83009         0.69722
C         47.84087        36.03567         0.23921
C         46.53991        35.30534         0.30742
C         47.90755        37.40076        -0.34677
C         46.62882        38.06662        -0.70905
C         47.85473        40.32868        -0.39462
C         46.60043        39.56657        -0.64809
C         47.80665        41.69531        -0.30168
C         46.49873        42.40899         0.03725
C         47.72517        44.64303         0.32014
C         46.46143        43.92175        -0.28905
C         47.39533        46.08049         0.04253
C         46.31347        46.66374         0.15468
C         50.38635        28.70158         0.62901
C         48.96647        28.86265         0.38968
C         50.32341        31.71632         0.43130
C         49.11702        31.12590         0.25226
C         50.32127        33.11120         1.08970
C         49.06783        33.91332         0.71622
C         50.30441        36.07862         0.61981
C         49.10539        35.29383         0.54202
C         50.32226        37.41896         0.11680
C         49.08759        38.10706        -0.31250
C         50.31386        40.26582        -0.54380
C         49.12520        39.57833        -0.48509
C         50.35745        41.74297        -0.12942
C         49.05212        42.50019        -0.40928
C         50.36300        44.44383         0.15602
C         48.99854        44.00440        -0.18779
C         51.33089        29.50025         0.68121
C         52.70920        31.73630         0.84819
C         51.64108        30.89476         0.19189
C         52.68134        32.96033         0.99404
C         51.59703        33.92867         0.64388
C         52.74200        36.19744         0.83061
C         51.54827        35.34540         1.22226
C         52.64612        37.34478         0.36613
C         51.53704        38.13626        -0.02962
C         52.70050        40.38561        -0.24382
C         51.61249        39.46143        -0.72116
C         52.76556        41.61209        -0.14775
C         51.66466        42.54983        -0.58787
C         51.46966        43.91373         0.03813
O         44.64065        42.11276        -1.76484
O         34.54093        29.66956        -2.87406
O         34.54894        43.45680         2.11809
O         36.66867        37.65364         1.83775
O         43.80863        39.77014        -2.28486
O         42.25667        44.56410        -1.99400
O         46.68853        38.88451        -1.93090
O         37.76747        35.42900         1.47209
O         31.00611        34.79033        -0.35854
O         41.90385        35.68709         1.06241
O         41.53209        39.85511         0.88415
O         31.73801        39.84359         0.44931
O         37.20595        44.95901         1.19796
O         46.94996        36.13036         1.45455
O         34.89766        35.09966         2.12557
O         45.38839        36.24203        -1.73122
O         33.40814        30.74300         0.54452
O         41.49008        48.24207        -0.39699
O         48.94857        29.97399        -0.50171
O         44.24984        29.43574         2.14042
O         34.54370        43.69513        -1.12222
H         35.13184        43.80185        -1.89941
O         35.24102        33.75463        -1.73626
H         35.96817        33.41522        -2.31236
O         41.81802        26.98141         1.87067
H         41.17405        27.72893         2.02270
O         37.10184        37.06023        -1.73316
H         36.96562        37.94896        -2.13821
O         41.62977        38.06409        -2.37331
H         42.40602        38.63423        -2.63995
O         47.73086        44.49294         1.74089
H         46.99149        45.04836         2.10860
O         51.59638        34.06160        -0.77118
H         51.80848        33.18934        -1.17168
O         40.40589        35.76562        -2.32507
H         40.90683        36.54426        -2.68639
O         45.32263        45.80072         2.10276
H         45.09687        46.63350         2.57180
O         50.40400        41.67786         1.31686
H         51.30732        41.39504         1.58234
O         33.82895        38.99459        -0.51176
H         32.85938        39.14123        -0.67303
O         36.16230        39.57428        -1.31785
H         35.19531        39.37743        -1.42757
O         46.55038        44.10432        -1.70328
H         45.87071        43.54005        -2.14233
O         38.13553        26.84548         1.35684
H         38.70691        26.25995         1.90603
O         47.90521        33.10421        -1.16042
H         48.82485        32.86779        -1.40899
O         40.26699        46.13252        -2.47494
H         41.14397        45.73657        -2.71150
O         40.09406        40.06336        -2.59075
H         40.79873        40.62649        -2.98404
O         35.84007        39.92683         2.38282
H         36.79699        40.18625         2.44058
O         44.99685        39.92301         1.07788
H         45.50344        40.57612         1.61943
O         30.90504        31.36147        -2.06720
H         30.03006        30.98690        -2.29374
O         48.01022        31.77173         2.25198
H         47.22520        32.26244         2.60829
O         37.70872        46.10535        -2.66137
H         38.64863        46.04264        -2.97715
O         39.67495        30.78613        -2.50158
H         39.00765        30.35152        -3.07946
O         40.28017        37.44797         0.99917
H         39.78655        36.69095         1.38375
O         45.09876        31.74933         2.12993
H         44.13960        31.82812         2.35571
O         41.94763        42.06373        -2.35008
H         42.55112        42.79045        -2.63791
O         34.16668        32.75056         1.64598
H         34.68517        33.28012         2.29778
O         44.06278        30.78008        -1.31493
H         44.90024        30.30779        -1.55342
O         42.43936        31.55999         1.88315
H         41.59077        32.04760         2.02441
O         49.01752        43.45484        -1.51785
O         50.38225        32.98258         2.51165
H         49.60506        32.43318         2.78543
O         37.20589        41.97342        -1.39794
H         36.75093        41.15722        -1.72526
O         42.47921        42.26229         1.28130
H         41.74807        41.71030         1.65812
O         38.35511        40.09385         1.56167
H         38.96066        39.31901         1.62509
O         34.28594        38.04378         2.99462
H         35.23170        38.18080         3.23513
O         51.68428        42.67383        -1.96739
H         52.42102        43.25246        -2.24790
O         51.89750        30.84325        -1.19738
H         52.60941        30.19309        -1.37004
O         40.50167        33.05625        -2.30952
H         40.56055        34.01085        -2.57823
O         38.36928        29.55804         0.67529
H         38.28125        28.65764         1.08463
O         40.75966        29.38092         1.69030
H         41.38743        29.92697         2.22657
O         46.37832        33.80279         2.12685
H         46.73305        34.66319         2.46305
O         40.88222        28.66302        -1.91934
H         40.17550        28.51952        -2.59473
O         32.78499        33.56131        -1.64132
H         32.12803        34.29444        -1.70453
O         40.48763        45.00870         1.01548
H         40.24097        44.18432         1.50638
O         38.31300        28.59006        -2.88582
H         37.60439        28.10394        -3.36589
O         40.45257        25.01108         1.68342
H         41.13030        24.64718         2.28960
O         46.78771        29.68669         2.65432
H         46.01782        30.22809         2.95671
O         51.79035        39.21831        -2.11972
H         52.52940        38.58556        -2.23682
O         42.01065        26.43232        -1.22376
H         41.87022        27.30377        -1.69911
O         37.13225        42.41013         2.25776
H         36.47707        42.90940         2.79766
O         39.60398        42.48285         1.32396
H         38.84165        42.47354         1.95934
O         44.54034        26.68829        -0.47238
H         43.92470        26.31836        -1.14353
O         44.51277        27.03645         3.08365
H         45.17242        27.44181         3.68283
O         45.50808        32.96076        -1.33433
H         44.74035        32.46707        -1.71605
O         46.62273        30.51582        -0.94560
H         46.79631        31.37216        -1.41527
O         51.43719        35.29954         2.62196
H         51.41372        36.21066         2.97715
O         37.72914        32.29247        -2.59563
H         38.65242        32.57558        -2.83181
O         39.73152        31.78973         1.03387
H         39.29963        30.93467         1.31062
O         46.33680        42.26090         1.47774
H         46.98960        42.87248         1.91494
