         429
 CSIRO Nanostructure Databank - Neutral Graphene Oxide Data Set
C          1.41254         3.31145         0.29840
C          0.19407         3.97058         0.44148
C          1.32606         6.13130         0.41455
C          0.14242         5.36440         0.50491
C          1.29188         7.58787         0.47796
C          0.23896         8.31010         1.04264
C          1.30392        10.46225         0.48148
C          0.23521         9.70840         1.03850
C          1.26745        11.97546         0.59983
C         -0.05490        12.63821         0.29763
C          1.04849        14.81718        -0.00223
C         -0.13387        13.97865         0.11800
C          1.05741        16.21355         0.01395
C         -0.17234        16.98362         0.11442
C          1.03839        19.10090        -0.29128
C         -0.19623        18.32606        -0.04112
C          1.01329        20.60923        -0.39588
C         -0.22022        21.38261        -0.08721
C          1.04471        23.46508        -0.51805
C         -0.19569        22.72373        -0.05608
C          1.05903        24.96694        -0.26222
C         -0.07989        25.68584        -0.65458
C          1.14811        27.77871        -0.54618
C         -0.04096        27.07154        -0.76481
C          1.16177        29.25207        -0.86930
C         -0.05256        30.01281        -0.38646
C          1.18542        32.11567        -0.54647
C         -0.03806        31.36354        -0.32915
C          1.20836        33.52888        -0.69988
C          0.03078        34.34923        -0.62800
C          1.30138        36.43385        -0.84583
C          0.09373        35.73495        -0.60942
C          1.40841        37.83519        -0.82559
C          3.88280         3.37950         0.08275
C          2.61906         4.04733         0.21047
C          3.84016         6.25705         0.32152
C          2.56314         5.46342         0.25077
C          3.72497         7.61492        -0.33434
C          2.40500         8.34211        -0.10815
C          3.58088        10.51874        -0.68663
C          2.41205         9.80481        -0.03961
C          3.58842        12.00618        -0.40236
C          2.39385        12.65053        -0.14661
C          3.61906        14.88763        -0.38528
C          2.28284        14.08998        -0.33790
C          3.53117        16.27723         0.04209
C          2.31239        16.95535         0.05204
C          3.48628        19.13597         0.18097
C          2.31786        18.41280         0.04736
C          3.57392        20.56721        -0.31906
C          2.28874        21.34566        -0.16560
C          3.48697        23.43560         0.37429
C          2.28770        22.70001        -0.09102
C          3.43008        24.93830         0.52425
C          2.24689        25.67672         0.01446
C          3.59515        27.80101         0.00218
C          2.31968        27.08378        -0.16628
C          3.61823        29.25233        -0.21709
C          2.43173        29.95684        -0.47277
C          3.64847        32.09073        -0.43436
C          2.41764        31.38415        -0.51837
C          3.65407        33.50814        -0.57179
C          2.47200        34.19922        -0.81058
C          3.80639        36.33493        -1.28738
C          2.45939        35.61786        -1.35332
C          3.85379        37.81112        -1.16391
C          2.61951        38.50309        -1.01924
C          6.32345         3.41119        -0.30638
C          5.07615         4.08824        -0.09579
C          6.24276         6.24545        -0.39846
C          5.07665         5.52116        -0.12602
C          6.18873         7.69438        -0.53744
C          4.98588         8.37736        -0.48201
C          6.09547        10.54179        -0.46586
C          4.93134         9.82682        -0.50200
C          6.06551        11.98139        -0.15243
C          4.82463        12.74744        -0.38580
C          6.09395        14.84839         0.02885
C          4.85724        14.12569        -0.21039
C          6.05715        16.25024         0.25211
C          4.76588        16.92599         0.46313
C          6.03053        19.15600         0.41406
C          4.73504        18.46542         0.55996
C          6.00142        20.59775         0.25679
C          4.81894        21.31282         0.12221
C          5.97221        23.48623         0.44850
C          4.80379        22.75359         0.29192
C          6.00829        24.93493         0.75603
C          4.70405        25.70867         0.73169
C          6.01550        27.88993         0.78785
C          4.73971        27.15117         0.40534
C          6.09960        29.26871         0.16648
C          4.85689        29.95811        -0.15376
C          6.12435        32.07365        -0.34174
C          4.87578        31.36665        -0.31885
C          6.17581        33.45986        -0.29331
C          4.90418        34.26009        -0.20078
C          6.27872        36.33664        -0.58710
C          5.04481        35.59238        -0.89502
C          6.31784        37.75809        -0.79227
C          5.08628        38.45443        -1.03911
C          8.76290         3.34525        -0.77465
C          7.49464         4.10859        -0.48399
C          8.72852         6.24900        -0.52225
C          7.50249         5.54826        -0.50796
C          8.74213         7.71262        -0.73380
C          7.43466         8.43267        -0.87578
C          8.67185        10.61591        -0.29285
C          7.42477         9.96365        -0.89752
C          8.65312        11.98555        -0.06855
C          7.36014        12.70508         0.04718
C          8.55559        14.88623         0.15948
C          7.33718        14.17554         0.01719
C          8.50209        16.28970         0.33205
C          7.25791        16.98354         0.38810
C          8.54130        19.13983         0.32226
C          7.21381        18.43862         0.47392
C          8.52185        20.62642         0.51719
C          7.28042        21.31135         0.16874
C          8.52069        23.52306         0.53275
C          7.26408        22.83579         0.20323
C          8.51135        24.95111         0.61357
C          7.28964        25.67254         0.59076
C          8.52678        27.77633         0.58320
C          7.30180        27.08907         0.58496
C          8.54154        29.28757         0.66305
C          7.30349        29.90399         0.05193
C          8.63614        32.02422        -0.28897
C          7.36988        31.27408        -0.59948
C          8.64895        33.42204        -0.13009
C          7.40360        34.17505        -0.17312
C          8.63525        36.35376         0.13289
C          7.41213        35.60413        -0.20872
C          8.73559        37.79452        -0.22211
C          7.54139        38.44484        -0.66272
C         11.23539         3.48307        -0.58553
C         10.02746         4.14394        -0.57016
C         11.19747         6.32201        -0.38614
C          9.97994         5.57554        -0.48784
C         11.18695         7.76220        -0.27392
C          9.97176         8.47983        -0.42106
C         11.12637        10.59459         0.08830
C          9.92003         9.88623        -0.23491
C         11.10919        12.01628         0.26915
C          9.86022        12.75008         0.13885
C         11.08679        14.90868         0.26413
C          9.81609        14.15343         0.19180
C         11.06343        16.42446         0.40731
C          9.72225        16.97928         0.81934
C         10.92075        19.23040         1.41269
C          9.66504        18.44112         1.06325
C         10.95142        20.64087         0.88374
C          9.71486        21.33423         0.64139
C         10.95583        23.48224         0.75555
C          9.71293        22.78931         0.61474
C         10.95107        24.89922         0.84168
C          9.75710        25.64307         0.74620
C         10.99257        27.80269         0.74359
C          9.76847        27.08464         0.71320
C         11.03793        29.19485         0.38765
C          9.84836        29.87865         0.18476
C         11.16614        31.97136        -0.14736
C          9.89954        31.22839        -0.46391
C         11.13007        33.42466        -0.36004
C          9.87902        34.13185        -0.06992
C         11.20530        36.30372         0.13997
C          9.93812        35.55747         0.22707
C         11.17444        37.77981         0.48519
C          9.94665        38.44895        -0.09595
C         13.69940         3.53240        -0.63067
C         12.46985         4.19855        -0.50931
C         13.66232         6.34290        -0.24756
C         12.43416         5.62637        -0.37818
C         13.64416         7.75921        -0.03174
C         12.41191         8.46668        -0.03102
C         13.56563        10.61239         0.46701
C         12.37284         9.89910         0.17150
C         13.54779        12.01501         0.69963
C         12.29780        12.68657         0.61107
C         13.46544        14.83021         1.35076
C         12.34738        14.15875         0.57619
C         13.46606        16.33653         1.22766
C         12.25653        17.04672         1.11462
C         13.40253        19.19771         1.43515
C         12.22565        18.47076         1.24813
C         13.40293        20.61962         1.24718
C         12.16448        21.32617         0.95550
C         13.42547        23.45065         0.82761
C         12.18159        22.75714         0.84160
C         13.46989        24.86788         0.84706
C         12.21914        25.58306         1.10741
C         13.54652        27.76008         0.78631
C         12.24496        27.11345         1.04345
C         13.52244        29.18371         0.55817
C         12.33831        29.86577         0.30290
C         13.61491        32.04496         0.10420
C         12.35535        31.30945         0.07467
C         13.65754        33.44612        -0.04367
C         12.42034        34.19129        -0.33096
C         13.65995        36.32935         0.00300
C         12.39301        35.64464        -0.05839
C         13.65396        37.78809        -0.02982
C         12.45455        38.46972         0.09512
C         16.14488         3.61115        -0.98954
C         14.91944         4.24163        -0.58131
C         16.14134         6.35948        -0.09656
C         14.88882         5.63631        -0.29739
C         16.11668         7.82228         0.01793
C         14.89756         8.45864         0.14172
C         16.13203        10.68204         0.41988
C         14.84058         9.88231         0.53127
C         16.00358        12.15887         0.31463
C         14.76924        12.79323         0.81371
C         16.02893        14.90937         1.26493
C         14.80613        14.17057         1.07116
C         15.90883        16.29775         1.62237
C         14.68357        16.99673         1.52955
C         15.91687        19.21029         1.67851
C         14.63095        18.46325         1.93066
C         15.86554        20.65636         1.57886
C         14.61461        21.33972         1.21881
C         15.87066        23.40200         0.54532
C         14.65368        22.72568         0.88875
C         15.87422        24.81863         0.37777
C         14.68839        25.56387         0.71808
C         16.08439        27.64614         1.00368
C         14.72176        27.00807         0.77121
C         16.09435        29.15650         0.78164
C         14.80637        29.91703         0.62539
C         16.06878        32.00230         0.13087
C         14.84765        31.34127         0.22367
C         16.11598        33.43741         0.11842
C         14.87109        34.16634         0.08028
C         16.11485        36.34794         0.23947
C         14.85143        35.60284         0.07288
C         16.12714        37.77564        -0.16243
C         14.90300        38.45927        -0.24322
C         18.44190         3.80252        -1.88529
C         17.31637         4.32489        -1.15389
C         18.54375         6.55284        -1.00994
C         17.44076         5.67400        -0.57677
C         18.56197         7.91930        -0.66843
C         17.45656         8.53214         0.17863
C         18.49349        10.79675        -0.32089
C         17.34411        10.02415        -0.04645
C         18.52030        12.20856        -0.05189
C         17.27053        12.96055         0.22326
C         18.59579        14.72922         1.21340
C         17.32232        14.27271         0.94079
C         18.99730        15.96802         1.93218
C         16.92900        17.15904         2.33970
C         18.38339        19.20482         1.51434
C         17.13545        18.56369         1.81490
C         18.39790        20.51651         1.01431
C         17.20583        21.35638         1.21254
C         18.12865        22.88652        -0.39366
C         17.07044        22.59290         0.44857
C         18.14516        24.96135        -0.68297
C         17.05730        25.56821        -0.00637
C         18.43152        27.59576         0.02509
C         17.20741        26.94160         0.28643
C         18.49917        29.04823         0.09213
C         17.33576        29.79149         0.30668
C         18.61261        31.90399         0.06200
C         17.30745        31.20798        -0.20005
C         18.60712        33.34942         0.26345
C         17.35279        34.10530         0.16137
C         18.65994        36.27094        -0.15517
C         17.42602        35.57253         0.27289
C         18.59702        37.66822        -0.44252
C         17.36372        38.39138        -0.40349
C         19.51418         4.59126        -2.18590
C         20.63995         6.80361        -2.22855
C         19.56998         5.98517        -1.80890
C         20.67684         8.14076        -1.87253
C         19.64846         8.72392        -1.09357
C         20.87424        10.89749        -0.87796
C         19.69521        10.14531        -0.76108
C         20.89896        12.25032        -0.54508
C         19.72294        12.90814        -0.13652
C         19.83331        15.44312        -0.69458
C         19.79519        14.32401         0.36182
C         19.63689        16.71623        -0.27647
C         19.45679        17.00604         1.15005
C         20.84525        19.08857         0.97325
C         19.68597        18.42409         1.67474
C         20.78499        20.31413         0.40773
C         19.56061        21.09040         0.38047
C         20.54454        23.15427        -0.77221
C         19.44926        22.34440        -0.27363
C         20.54840        24.52395        -0.94500
C         19.46151        25.44706        -0.67056
C         20.81830        27.55358        -0.53634
C         19.59887        26.85273        -0.37421
C         20.88514        28.94167        -0.43247
C         19.74732        29.72657        -0.17054
C         21.03008        31.91560        -0.27668
C         19.79658        31.18539        -0.07033
C         21.08006        33.27414        -0.35640
C         19.94942        34.11880         0.04254
C         21.01639        36.25646        -0.75913
C         19.87271        35.56549        -0.32215
C         20.96714        37.63391        -1.00964
C         19.78114        38.33523        -0.85078
O         15.65084        10.18468         1.73189
O          7.36920        22.11550        -1.07369
O          3.16026        24.06925         1.67371
O          4.69200        35.73272        -2.30713
O         16.68099        21.36893         2.56081
O         19.45196        33.82491         1.36949
O          8.12817         7.95454        -2.08560
O         17.89763        23.80136        -1.43260
O          9.16254        35.97540         1.44190
O         11.80233        33.84542        -1.63522
O          2.82543         7.75552        -1.45582
O          4.65725        17.62694         1.74929
O         17.12741        16.93802         3.54054
O          1.05967        23.39258        -1.93860
O          5.34279        25.36993         2.01195
O         12.22277        26.39275         2.32636
O         16.38610        12.80233        -0.95146
O          2.87848        14.55860        -1.58909
O         17.09227         5.73242         0.83315
O          6.58778        12.19699         1.22776
O          9.40879        17.50234         2.16073
O          1.01862        19.78514        -1.61554
O         15.47826        29.81167         1.95731
O         12.08369        14.59277        -0.79611
O         16.80485        36.09620         1.50657
O          8.92194        18.97859        -1.09055
H          8.32113        19.53580        -1.63139
O          3.34063        10.41911        -2.12773
H          3.19232         9.46226        -2.32602
O         10.02727        30.95956        -1.94850
H         10.39213        31.77820        -2.35429
O          5.94899        28.09485         2.24242
H          5.77639        27.20067         2.63120
O         20.01031        18.40277         3.07767
H         19.26171        17.98779         3.56118
O          8.80948         2.12034        -0.03193
H          8.86865         2.34078         0.91996
O          2.16793        35.44614        -2.77911
H          3.02887        35.23744        -3.21138
O         17.85137         8.39331         1.58170
H         17.13794         8.82082         2.11204
O          4.73253        34.62630         1.21124
H          4.74378        33.80112         1.74087
O         21.02495        14.40517         1.11114
H         21.12892        15.32510         1.43646
O          4.05856         6.57533         1.74810
H          4.15948         5.72486         2.22628
O          1.53713        12.27419         2.01479
H          2.41576        11.90199         2.24173
O         19.19505        15.89387         3.27252
H         18.70132        15.13887         3.64880
O          1.11381        29.32675        -2.33861
H          1.14214        30.27527        -2.58721
O         10.85106        19.46089         2.86066
H         10.52391        18.62196         3.26250
O         13.13408        14.56342         2.75159
H         13.78083        15.04317         3.31169
O         14.47095        18.45970         3.39408
H         15.31143        18.13402         3.78861
O         11.18043        16.95724        -0.95062
H         11.79097        16.35666        -1.43967
O          8.44238        29.60785         2.09882
H          7.62985        29.14947         2.43208
O          7.35216        31.02889        -2.05690
H          8.28483        30.80556        -2.31539
O         16.34711        27.42473         2.41881
H         15.86336        28.13295         2.90503
O          3.74094        20.43441        -1.77346
H          2.84485        20.22217        -2.13866
O         11.07618        37.87759         1.94944
H         10.31811        37.29975         2.21211
O          7.49070        10.38272        -2.29777
H          7.88371         9.62602        -2.79769
O         17.21646        31.07127        -1.68976
H         18.03602        30.62059        -1.98952
H          1.44618         2.21342         0.25646
H         -0.73673         3.38996         0.50515
H         -0.82976         5.86698         0.60284
H         -0.60553         7.77677         1.50154
H         -0.61111        10.24137         1.49243
H         -0.97542        12.03819         0.34222
H         -1.12504        14.44503         0.01587
H         -1.11971        16.44541         0.25908
H         -1.16106        18.85255        -0.05044
H         -1.14559        20.83916         0.15681
H         -1.10925        23.29023         0.18252
H         -0.99915        25.14739        -0.92250
H         -0.93841        27.60794        -1.10247
H         -0.99183        29.47095        -0.20380
H         -0.96023        31.90728        -0.07781
H         -0.94706        33.86850        -0.48480
H         -0.82188        36.31109        -0.40672
H          0.50739        38.42899        -0.60883
H          3.90238         2.28020         0.07865
H          2.64089        39.60063        -0.94860
H          6.34308         2.31153        -0.31450
H          5.10365        39.55495        -1.00731
H          8.72927         3.04483        -1.86125
H          7.57509        39.52580        -0.86358
H         11.25267         2.38754        -0.67954
H         10.00114        39.52148        -0.33768
H         13.71066         2.44709        -0.80839
H         12.45480        39.57005         0.05681
H         16.09260         2.57330        -1.35207
H         14.90125        39.54260        -0.43551
H         18.40647         2.75717        -2.22498
H         17.38349        39.46138        -0.65976
H         20.35518         4.18022        -2.76298
H         21.43963         6.37374        -2.84823
H         21.51177         8.76071        -2.22545
H         21.80923        10.41328        -1.19057
H         21.84013        12.81372        -0.58997
H         20.06950        15.20981        -1.74252
H         19.73542        17.55942        -0.97747
H         21.79956        18.54069         0.97526
H         21.68205        20.73730        -0.06793
H         21.51451        22.64845        -0.90176
H         21.52384        24.97267        -1.19237
H         21.73080        26.99780        -0.79258
H         21.85921        29.42353        -0.59308
H         21.93954        31.34969        -0.52164
H         22.00411        33.75288        -0.71059
H         21.97140        35.72723        -0.87612
H         21.87768        38.15787        -1.33124
H         19.74344        39.41427        -1.05711
