         349
 CSIRO Nanostructure Databank - Neutral Graphene Oxide Data Set
C          1.46479         3.26283        -1.11907
C          0.24420         3.90393        -0.94847
C          1.26233         6.13575        -1.06705
C          0.14851         5.30692        -0.87409
C          1.23517         7.55306        -0.83988
C          0.00567         8.21123        -0.58167
C          1.13414        10.34681        -0.28603
C         -0.04983         9.56404        -0.32179
C          1.00734        11.81086        -0.01576
C         -0.10740        12.55369        -0.62125
C          1.05877        14.70603        -0.29114
C         -0.07674        13.90291        -0.72290
C          1.01793        16.16314        -0.41369
C         -0.17294        16.77237        -0.83701
C          0.95206        18.90467        -0.96070
C         -0.19757        18.12146        -1.14765
C          0.92875        21.28997        -0.66599
C         -0.20405        22.11790        -0.54781
C          1.13141        23.79669         0.59420
C         -0.11412        23.32182         0.14538
C          1.27008        25.12699         1.18680
C          0.14636        25.87659         1.65200
C          1.58366        27.73696         2.30570
C          0.30540        27.11443         2.23906
C          1.77788        29.04038         2.84711
C          3.90947         3.40544        -1.38479
C          2.65569         4.01271        -1.27719
C          3.80177         6.31837        -1.39060
C          2.53769         5.48439        -1.41147
C          3.70276         7.75428        -1.07516
C          2.45357         8.34088        -0.82272
C          3.59407        10.60343        -0.56429
C          2.37136         9.74238        -0.49112
C          3.55930        11.89883         0.20615
C          2.24107        12.61489         0.30020
C          3.38421        14.87748         0.64965
C          2.21604        14.08242         0.11276
C          3.40538        16.33877         0.24280
C          2.18654        16.96732        -0.17198
C          3.31939        19.21957        -0.01764
C          2.13892        18.38517        -0.41236
C          3.34189        20.73970         0.01619
C          2.16604        21.65264        -0.13706
C          3.59586        23.52480         0.53022
C          2.29170        22.97955         0.38119
C          3.74587        24.89253         1.02265
C          2.54404        25.69588         1.31113
C          3.96573        27.69510         1.68521
C          2.70891        27.03674         1.77808
C          4.13580        28.98620         2.21265
C          3.02163        29.63333         2.83168
C          6.35810         3.52352        -1.34617
C          5.11964         4.14489        -1.29799
C          6.32026         6.35916        -1.01126
C          5.03379         5.59523        -0.87782
C          6.28501         7.83447        -1.19275
C          4.95122         8.54328        -1.23857
C          6.23463        10.84133        -1.10426
C          4.90097        10.03683        -1.04968
C          6.03375        12.20189        -0.40755
C          4.81067        12.70217         0.29409
C          5.85857        14.95583         0.50266
C          4.71024        14.19401         0.42485
C          5.85607        16.37992         0.49892
C          4.62510        17.06893         0.31839
C          5.82555        19.21491         0.08873
C          4.64320        18.50699         0.07761
C          5.84740        20.60957        -0.42771
C          4.64682        21.42713        -0.15449
C          5.94614        23.55592        -0.36702
C          4.73388        22.79972         0.06091
C          6.14885        24.95570         0.06586
C          5.05641        25.60374         0.83129
C          6.40998        27.66867         0.98595
C          5.02322        27.11095         0.78132
C          6.52801        29.00427         1.55856
C          5.41739        29.63245         2.11467
C          8.79663         3.58662        -1.00820
C          7.57028         4.23264        -1.06796
C          8.72751         6.38519        -0.54721
C          7.51856         5.67942        -0.88603
C          8.54516         7.80796        -0.07769
C          7.60652         8.59490        -1.00451
C          8.66618        10.65872        -0.18504
C          7.47981        10.06891        -0.59159
C          8.94045        12.08250        -0.30288
C          7.04589        13.09109        -0.41381
C          8.43844        14.94371         0.74536
C          7.12385        14.15583         0.66229
C          8.45149        16.41479         0.57494
C          7.13285        17.10695         0.68931
C          8.41146        19.35592         0.41283
C          7.10354        18.60325         0.52734
C          8.43014        20.70710        -0.21872
C          7.14569        21.28843        -0.73808
C          8.46419        23.49255        -1.01212
C          7.14399        22.78348        -0.87504
C          8.49102        25.00348        -0.77913
C          7.32125        25.65153        -0.12294
C          8.89170        27.55404         0.64008
C          7.48859        26.97729         0.49559
C          8.89945        29.04512         0.90860
C          7.78957        29.66891         1.46104
C         11.21446         3.61560        -0.59200
C          9.99870         4.28726        -0.68271
C         11.12725         6.40358         0.03791
C          9.92833         5.71269        -0.40285
C         11.07995         7.78156         0.39274
C          9.84622         8.52537         0.20757
C         10.92257        10.58860         1.05576
C          9.80752         9.89150         0.34505
C         10.97408        12.09924         1.07966
C          9.86059        12.77894         0.40540
C         10.99634        15.01432         0.46823
C          9.76432        14.24077         0.61579
C         10.94409        16.38133         0.52371
C          9.65747        17.08783         0.53414
C         10.95828        19.23789         0.06697
C          9.72516        18.60526         0.72192
C         10.90330        20.58470        -0.46265
C          9.72657        21.32917        -0.61441
C         10.93415        23.47397        -0.90361
C          9.73688        22.74186        -0.89101
C         10.95473        24.91890        -0.76198
C          9.80553        25.66036        -0.64789
C         11.03940        27.94272        -0.82206
C          9.69098        27.18195        -0.62498
C         11.20038        29.20003         0.02757
C         10.11280        29.74991         0.71258
C         13.64135         3.62750        -0.24743
C         12.41472         4.28019        -0.20575
C         13.52489         6.38149         0.51501
C         12.34756         5.69705         0.14455
C         13.49825         7.76558         0.75645
C         12.27486         8.45834         0.73985
C         13.48180        10.65317         1.19343
C         12.21469         9.82962         1.37903
C         13.50322        12.15403         1.50991
C         12.21342        12.86153         1.15464
C         13.49378        15.00055         0.57763
C         12.25229        14.17307         0.36026
C         13.48440        16.39249         0.46233
C         12.21853        17.17980         0.75358
C         13.43296        19.20497        -0.18756
C         12.16813        18.55234         0.11101
C         13.43374        20.53614        -0.55686
C         12.17100        21.21139        -0.87286
C         13.49498        23.45943        -0.96699
C         12.19477        22.74878        -1.07543
C         13.52096        24.86070        -0.87789
C         12.26440        25.60493        -0.61358
C         13.58544        27.80498        -0.94968
C         12.28722        27.09820        -0.59569
C         13.64455        29.22398        -0.42566
C         12.45749        29.84041         0.02965
C         16.08405         3.76578        -0.18302
C         14.86291         4.29149         0.11578
C         16.00826         6.33706         1.11875
C         14.72412         5.55709         0.92914
C         15.84205         7.72888         1.74374
C         14.82203         8.49264         0.85943
C         15.93203        10.68167         1.26240
C         14.69996         9.97724         1.15794
C         15.96995        12.05696         0.77568
C         14.65900        12.81404         0.76655
C         15.94456        14.94005         0.46021
C         14.71483        14.28742         0.63277
C         15.94979        16.35224         0.17789
C         14.71620        17.07896         0.22838
C         15.90845        19.07517        -0.52142
C         14.70980        18.47238        -0.09816
C         15.88307        20.48535        -0.99306
C         14.72654        21.31092        -0.48429
C         15.93758        23.42040        -1.13384
C         14.71088        22.73612        -0.99066
C         15.96731        24.84406        -1.06786
C         14.75905        25.53927        -0.84789
C         16.11595        27.70069        -0.58465
C         14.79426        26.98303        -0.54796
C         16.10194        29.17869        -0.73678
C         14.88126        29.87348        -0.45977
C         18.57044         3.69150         0.23746
C         17.35183         4.54959        -0.00742
C         18.45772         6.30013         1.50368
C         17.20369         5.72360         0.94678
C         18.48772         7.78239         1.74305
C         17.17192         8.50129         1.85337
C         18.46984        10.72872         1.42542
C         17.16760        10.00427         1.66047
C         18.47243        12.15190         0.97968
C         17.22319        12.83513         0.75425
C         18.43051        15.03802         0.67216
C         17.18136        14.20522         0.56532
C         18.42104        16.15860        -0.37230
C         17.15808        17.00038        -0.21250
C         18.37280        19.00676        -1.10129
C         17.13005        18.34616        -0.59734
C         18.43236        20.47735        -1.22753
C         17.16021        21.21187        -1.29833
C         18.39262        23.34711        -1.42238
C         17.19418        22.69043        -1.25505
C         18.39307        24.82134        -1.77961
C         17.21850        25.56740        -1.20102
C         18.52338        27.67261        -1.27334
C         17.30234        26.93277        -1.00901
C         18.51194        29.09675        -1.24571
C         17.29229        29.82320        -1.01754
C         19.70011         4.19093         0.75453
C         20.97279         6.36180         1.23486
C         19.74683         5.55975         1.33358
C         20.91887         7.74910         1.22737
C         19.74677         8.49484         1.44230
C         20.93544        10.76353         1.45776
C         19.72442         9.95590         1.05224
C         20.90157        12.10882         1.35168
C         19.68759        12.83011         0.98075
C         20.88369        14.95697         0.52726
C         19.72265        14.24593         0.68152
C         20.85582        16.34466         0.14800
C         19.71386        16.95187        -0.28487
C         20.92125        19.12176        -0.86170
C         19.71493        18.28775        -0.91391
C         20.87921        20.45216        -1.10532
C         19.63318        21.16281        -1.30198
C         20.82907        23.32993        -1.58619
C         19.64780        22.61829        -1.46478
C         20.86225        24.75818        -1.58239
C         19.71878        25.51478        -1.56855
C         20.91846        27.71208        -1.72132
C         19.73698        26.97564        -1.52438
C         20.90401        29.11207        -1.69568
C         19.71904        29.80115        -1.46932
O          8.37027        24.43381        -2.12200
O         17.87932         8.12587         3.06746
O         19.01532        18.28723        -2.21464
O         10.48914        11.30854         2.27282
O          1.34631        12.15342         1.37427
O          0.81248        20.18346        -1.49865
O         15.47595        27.30218         0.69095
O          9.17856        14.55270         1.95719
O          3.21357         5.93749        -2.65688
O         16.24987        20.68849        -2.37541
O         12.34102        26.38854         0.65809
O          7.05336        18.00246         1.87297
O         12.16074        21.81927        -2.20750
O          5.65912         8.17215        -2.48549
O         15.09261        12.16151        -0.45536
O          4.77969        25.00766         2.11927
O          3.15975        19.94550         1.27274
O          6.44195        20.61280        -1.81453
O          4.33668        11.89788         1.44183
O          8.33409        20.56978         1.24853
O          8.17109        12.84708        -1.19422
O         17.92570        10.64783         2.76626
O          3.98140        10.71975        -1.98648
O         19.02872         5.57143         2.64513
O          6.16737        23.29968        -1.80459
O         18.35646        15.71708         1.96361
H         18.33547        15.03329         2.66563
O         12.19568         9.54849         2.81322
H         11.54555        10.17819         3.21287
O         15.41966         8.42599        -0.47488
H         14.90605         9.00944        -1.07337
O         13.64950        27.87608        -2.41519
H         14.38945        28.47362        -2.65822
O          9.53448        26.90574         1.76301
H          9.09762        27.20490         2.58721
O         11.04739        28.37982        -2.20446
H         11.97893        28.38191        -2.54021
O         18.17718        24.84290        -3.24312
H         18.88128        24.29271        -3.64820
O          3.19516        14.85967         2.11510
H          3.30948        13.92826         2.41020
O         19.68525         9.94222        -0.41931
H         20.53903         9.58405        -0.74215
O          4.78177         5.56749         0.58137
H          5.56098         5.15418         1.01154
O          8.80432        27.53193        -1.70094
H          9.36106        27.71962        -2.49250
O          4.61610        27.44950        -0.58317
H          4.79574        28.40257        -0.72507
O         14.38077         5.11031         2.28262
H         14.45381         5.90743         2.86532
O          7.84662         7.73264         1.20433
H          8.46842         7.37351         1.87193
O          6.96825        13.41937         1.90201
H          7.79307        13.55585         2.43130
O         13.79674        12.33986         2.93139
H         13.08878        11.89438         3.44330
O          9.91906        18.76319         2.16250
H          9.04647        18.58985         2.58790
O         15.29742         7.60579         3.06843
H         16.06686         7.55375         3.68375
O         12.31133        13.75286        -1.05418
H         13.18511        13.32772        -1.20575
O         12.28890        17.41001         2.19424
H         11.47062        17.91022         2.45220
O         18.37433        15.57860        -1.69605
H         18.48570        16.32378        -2.33301
O          6.49704        11.04422        -2.50901
H          5.63055        11.21290        -2.94443
O         17.61211         5.18636        -1.31354
H         16.81815         5.71222        -1.55058
O          8.24216         8.65556        -2.29596
H          7.60256         9.09259        -2.90549
O         15.00799        21.45441         0.95352
H         14.28004        21.96613         1.36575
H          1.52020         2.16498        -1.09574
H         -0.66585         3.30448        -0.80678
H         -0.83070         5.74030        -0.63026
H         -0.93320         7.64287        -0.60175
H         -1.01987        10.04295        -0.13252
H         -0.94510        11.99215        -1.05938
H         -0.93067        14.39582        -1.20431
H         -1.09238        16.19093        -0.96884
H         -1.10358        18.59185        -1.54947
H         -1.15521        21.79667        -0.99111
H         -1.01602        23.93630         0.26699
H         -0.85969        25.43926         1.59278
H         -0.56944        27.64752         2.63889
H          0.91701        29.57384         3.27578
H          3.96785         2.30817        -1.45569
H          3.16009        30.63832         3.25608
H          6.41665         2.44743        -1.57007
H          5.52681        30.64678         2.52659
H          8.84890         2.50201        -1.18609
H          7.85215        30.72907         1.75160
H         11.25476         2.54006        -0.82122
H         10.21257        30.75846         1.14604
H         13.69357         2.60085        -0.64153
H         12.53962        30.82806         0.51100
H         16.14546         2.81572        -0.73806
H         14.92662        30.95482        -0.25880
H         18.54492         2.65915        -0.14397
H         17.31771        30.92169        -1.07705
H         20.60239         3.56587         0.84421
H         21.92411         5.85434         1.02062
H         21.85300         8.29699         1.02529
H         21.85566        10.25322         1.77699
H         21.80226        12.69232         1.59128
H         21.86598        14.47384         0.62501
H         21.81739        16.87712         0.12339
H         21.88015        18.65605        -0.59603
H         21.81775        21.01975        -1.06433
H         21.79484        22.81010        -1.62054
H         21.85004        25.23895        -1.53926
H         21.86645        27.19398        -1.92021
H         21.83765        29.66671        -1.86371
H         19.71072        30.90030        -1.45332
