         210
 CSIRO Nanostructure Databank - Neutral Graphene Oxide Data Set
C         30.38979        31.66334         0.53492
C         30.47887        32.91028         0.71427
C         30.42717        36.00182         0.49155
C         30.41639        37.23210         0.22882
C         30.38106        40.31149        -0.29756
C         30.41524        41.55056        -0.39418
C         32.78695        28.98142        -0.32807
C         31.67508        29.50071        -0.07756
C         32.78564        31.60801         0.28549
C         31.52049        30.87446         0.24769
C         32.80294        33.02148         0.54406
C         31.58450        33.76456         0.73449
C         32.77414        35.95480         0.62405
C         31.57149        35.20030         0.67890
C         32.78076        37.35481         0.32068
C         31.55008        38.03572         0.03547
C         32.84353        40.23982        -0.36019
C         31.52547        39.41349        -0.43853
C         32.79326        41.71931        -0.21340
C         31.53741        42.42419        -0.24606
C         32.78332        44.38262         0.00444
C         31.66223        43.82480        -0.12344
C         35.49001        27.52187        -0.85611
C         35.30794        28.88931        -0.52418
C         34.08389        29.54398        -0.29625
C         35.27953        31.65776         0.11560
C         34.03896        30.94422         0.03999
C         35.25957        33.06663         0.40889
C         34.04338        33.73760         0.57943
C         35.30521        35.94915         0.83947
C         34.00670        35.17643         1.08063
C         35.29397        37.42809         0.57159
C         34.01543        38.13265         0.29483
C         35.29824        40.26221         0.14901
C         34.05844        39.50433         0.05941
C         35.27109        41.66335         0.08246
C         34.03354        42.40414        -0.03567
C         35.30607        44.56717         0.02946
C         34.08207        43.84693         0.04413
C         35.48097        45.97215        -0.07972
C         37.87190        27.47212        -0.77708
C         36.58050        26.92188        -0.97050
C         37.81662        28.87751        -0.48712
C         36.56159        29.58061        -0.37609
C         37.77517        31.68483         0.05549
C         36.52917        30.97900        -0.07657
C         37.79189        33.09612         0.27801
C         36.51709        33.81072         0.40773
C         37.77576        35.88942         0.03825
C         36.51475        35.18515         0.48055
C         37.76016        37.39755         0.09487
C         36.55595        38.11115         0.18018
C         37.80287        40.19934         0.07737
C         36.56027        39.53367         0.16263
C         37.84262        41.65500         0.26578
C         36.52856        42.42502         0.26987
C         37.78374        44.55339        -0.24979
C         36.56747        43.88463        -0.01621
C         37.86240        45.99912        -0.38996
C         36.56721        46.57104        -0.23196
C         40.27842        24.65302        -0.65301
C         39.26358        25.35618        -0.85682
C         40.33050        27.41266        -0.45758
C         39.09622        26.76014        -0.74620
C         40.29885        28.84902        -0.25101
C         39.04959        29.56183        -0.24767
C         40.23291        31.67168         0.24031
C         39.01491        30.97388        -0.00139
C         40.25176        33.08443         0.47838
C         39.00790        33.78188         0.46389
C         40.24484        35.97470         0.35613
C         38.97503        35.27707         0.76301
C         40.23635        37.27838        -0.06910
C         38.99724        38.05937        -0.09453
C         40.26029        40.22524        -0.18400
C         39.02631        39.49160        -0.10619
C         40.28905        41.65315        -0.17742
C         39.08540        42.36339        -0.06410
C         40.36648        44.48972        -0.64750
C         39.02880        43.77146        -0.44618
C         40.36814        45.98834        -0.72810
C         39.06150        46.69054        -0.57689
C         40.28308        48.79028        -0.20729
C         39.28192        48.09405        -0.47169
C         42.77299        24.60741         0.06485
C         41.54003        25.19401        -0.29031
C         42.76081        27.35297         0.05560
C         41.55129        26.65498        -0.25231
C         42.83588        28.85017        -0.18020
C         41.49836        29.54744         0.01521
C         42.64126        31.61991         0.70710
C         41.45523        30.94326         0.28623
C         42.71166        33.04279         0.80234
C         41.50285        33.76530         0.66854
C         42.70593        35.80518        -0.05713
C         41.52584        35.28681         0.78397
C         42.77494        37.31636        -0.11208
C         41.50997        37.97433        -0.39650
C         42.78949        40.21460        -0.14798
C         41.51581        39.52454        -0.43837
C         42.78464        41.63305        -0.03556
C         41.56500        42.36869        -0.22007
C         42.81450        44.50147         0.00215
C         41.60314        43.77348        -0.29443
C         42.84215        45.94344        -0.04007
C         41.67605        46.70958        -0.58697
C         42.83473        48.78194         0.27086
C         41.69209        48.53556        -0.61766
C         43.78902        25.29240         0.35256
C         45.19661        27.39709         0.65560
C         43.96587        26.69116         0.39204
C         45.24337        28.81946         0.78919
C         43.95245        29.48876         0.62021
C         45.56453        31.80644         1.18908
C         43.71767        30.75201         1.09983
C         45.37438        33.09143         0.71162
C         44.04491        33.77660         0.84978
C         45.23444        35.84645        -0.28793
C         44.02673        35.19824         0.37520
C         45.24039        37.33400        -0.02564
C         43.98769        38.02847        -0.07204
C         45.21045        40.17356         0.29681
C         43.98629        39.48231        -0.01388
C         45.18606        41.59074         0.48690
C         43.99877        42.32732         0.27479
C         45.18183        44.47876         0.74310
C         43.98312        43.77616         0.37252
C         45.13707        45.91596         0.81934
C         43.96565        46.62031         0.46921
C         43.81122        48.05649         0.49081
C         47.58434        27.40528         0.76489
C         46.47775        26.81510         0.73533
C         47.76740        28.80786         0.73796
C         46.51870        29.52096         0.85860
C         47.83054        31.62877         0.40124
C         46.64791        30.96091         0.82183
C         47.79855        33.04735         0.19573
C         46.55427        33.76377         0.24285
C         47.74215        35.87530        -0.12225
C         46.53982        35.15870        -0.00002
C         47.73156        37.31700        -0.03492
C         46.45422        38.02925         0.12302
C         47.69719        40.10568         0.71300
C         46.42521        39.42579         0.37873
C         47.69769        41.56985         1.01765
C         46.33912        42.28327         1.19499
C         47.63723        44.42654         1.19798
C         46.40426        43.77356         0.96669
C         47.48131        45.83595         1.28378
C         46.39817        46.45414         1.16613
C         50.27476        28.90755         0.29606
C         48.99636        29.48064         0.48061
C         50.26445        31.57483        -0.12742
C         49.05090        30.89381         0.24060
C         50.23172        33.00704        -0.29879
C         49.00497        33.74275        -0.12302
C         50.19026        35.90523        -0.46344
C         48.98789        35.16792        -0.21817
C         50.17542        37.34338        -0.41579
C         48.94305        38.00481        -0.07303
C         50.19998        40.25010         0.02955
C         48.98800        39.42482         0.33303
C         50.02140        41.75418        -0.14988
C         48.92603        42.37099         0.72466
C         50.14867        44.39211         0.70483
C         48.89043        43.73324         0.98361
C         51.36167        29.44220        -0.03499
C         52.60220        31.63955        -0.66737
C         51.50456        30.82617        -0.29450
C         52.51638        32.88290        -0.81320
C         51.41105        33.74778        -0.64784
C         52.46788        36.03416        -1.02790
C         51.39257        35.16299        -0.73500
C         52.44375        37.28747        -1.03459
C         51.35475        38.12698        -0.69865
C         52.34922        40.47930        -0.87541
C         51.36381        39.55090        -0.64632
C         52.42779        41.74871        -0.64670
C         51.42132        42.53447        -0.15770
C         51.19098        43.86472         0.25716
O         47.82300        40.58427         2.11033
O         44.13798        34.92626         1.79843
O         41.49509        38.71511        -1.66027
O         37.21175        42.10019         1.53441
O         50.02458        39.70854         1.35073
O         35.48201        36.90879         1.95619
O         41.21685        46.37322        -1.91183
O         44.60432        31.27364         2.05029
O         39.64041        43.94348        -1.78941
O         32.29607        39.70272        -1.62104
O         45.02830        35.67326        -1.73866
H         45.75356        36.14392        -2.20207
O         49.52499        41.89246        -1.50792
H         49.49411        42.84718        -1.73272
O         37.97357        35.54888        -1.36835
H         37.32094        36.04306        -1.90642
O         41.94359        48.89401        -1.91751
H         41.42442        48.30297        -2.51020
O         43.17603        29.02321        -1.59858
H         42.46387        28.60950        -2.13104
O         33.85889        35.02695         2.51978
H         34.29337        35.81146         2.93143
O         38.82249        35.44675         2.18865
H         39.72384        35.44243         2.58998
O         42.40162        35.34546        -1.39629
H         43.17175        35.57125        -1.97101
O         45.97978        42.19303         2.60612
H         46.45321        41.40260         2.96647
O         41.65428        35.64402         2.18407
H         42.56034        35.35950         2.47659
