         429
 CSIRO Nanostructure Databank - Neutral Graphene Oxide Data Set
C          1.83439         4.88682        -5.15767
C          0.52300         5.13128        -4.81250
C          1.29597         6.44007        -2.92882
C          0.24770         5.87395        -3.64545
C          1.14262         8.39981        -1.70921
C         -0.03899         9.11609        -1.66422
C          1.19133        11.06853        -0.96221
C         -0.00979        10.48065        -1.33348
C          1.13960        12.32256        -0.16330
C         -0.03006        13.21973        -0.23250
C          1.17494        15.10760         0.80892
C          0.00500        14.49373         0.23748
C          1.17980        16.42640         1.25680
C         -0.05004        17.17355         1.41781
C          1.16410        19.07930         2.37882
C         -0.07701        18.39584         1.99807
C          1.17825        20.62710         2.45323
C         -0.06072        21.35547         2.11895
C          1.23879        23.33488         1.43548
C         -0.02690        22.58934         1.58935
C          1.19230        24.83940         1.32330
C         -0.07470        25.59824         1.36165
C          1.18539        27.70806         1.49929
C         -0.04985        26.94533         1.49388
C          1.14562        29.22442         1.46887
C         -0.09741        29.82444         0.85265
C          1.16171        31.87845         0.42259
C         -0.06309        31.08973         0.39304
C          1.08720        33.39043         0.31515
C         -0.13212        33.90964        -0.39698
C          1.18591        35.51624        -1.68952
C         -0.07281        34.91548        -1.29132
C          1.20106        36.52100        -2.70983
C          4.20642         4.91929        -4.57436
C          2.91011         5.41543        -4.37912
C          3.75732         7.01493        -2.63128
C          2.65830         6.33603        -3.30226
C          3.64751         8.27755        -1.92207
C          2.44464         9.00006        -1.62785
C          3.64494        11.01664        -0.73350
C          2.43905        10.36414        -1.11311
C          3.68038        12.28591        -0.08735
C          2.41423        12.89447         0.38664
C          3.66407        15.07616         0.85279
C          2.41689        14.26752         1.06590
C          3.68110        16.37606         1.31011
C          2.43317        17.08412         1.62367
C          3.69875        19.09283         2.44469
C          2.43324        18.38185         2.10548
C          3.75476        20.63148         2.64134
C          2.45657        21.33103         2.25711
C          3.72882        23.41353         1.95956
C          2.48683        22.65932         1.89388
C          3.64340        24.88094         2.14462
C          2.37799        25.60310         1.83441
C          3.66951        27.80775         1.65431
C          2.39795        27.07292         1.62261
C          3.63951        29.16090         1.33916
C          2.38289        29.75184         0.73748
C          3.62385        32.01692         0.64857
C          2.36698        31.26794         0.65918
C          3.58808        33.39329         0.19448
C          2.38676        33.95359        -0.21338
C          3.65141        35.63076        -1.54373
C          2.38170        35.07233        -1.11349
C          3.63731        36.62051        -2.61556
C          2.38247        37.04120        -3.16779
C          6.45597         4.59334        -3.71919
C          5.24355         5.31311        -3.70720
C          6.22694         6.95111        -2.16729
C          5.05789         6.44654        -2.83167
C          6.19231         8.23872        -1.56153
C          4.93199         8.99757        -1.69953
C          6.15742        10.92612        -0.49487
C          4.92442        10.41405        -1.12547
C          6.14044        12.27917         0.00533
C          4.89564        12.96527         0.11239
C          6.16681        15.00572         0.88488
C          4.90654        14.46918         0.25601
C          6.14981        16.36881         1.34982
C          4.94697        17.05223         1.48521
C          6.22518        19.17329         1.92054
C          4.97301        18.40065         2.07784
C          6.22024        20.56027         1.93933
C          4.88738        21.25058         1.78891
C          6.20641        23.42954         2.07289
C          4.95448        22.74989         1.99568
C          6.20479        24.90077         2.30001
C          4.91449        25.67115         2.25964
C          6.14609        27.75207         1.61073
C          4.92820        27.11439         1.87373
C          6.17797        29.22487         1.48324
C          4.83787        29.98555         1.41634
C          6.13319        32.07989         0.81483
C          4.82509        31.37297         0.89841
C          6.14673        33.53906         0.40242
C          4.82233        34.28022         0.20441
C          6.08243        36.05440        -1.16714
C          4.83800        35.22488        -0.97012
C          6.08469        36.75011        -2.51772
C          4.83808        37.09521        -3.11649
C          8.73089         4.22173        -2.87029
C          7.54317         4.98460        -2.91639
C          8.61506         6.74317        -1.55525
C          7.45127         6.22882        -2.20156
C          8.58125         8.05120        -0.93774
C          7.34823         8.80421        -0.97225
C          8.48886        10.70594         0.25112
C          7.30728        10.14812        -0.44288
C          8.57981        12.16919         0.44035
C          7.35074        12.91505         0.40419
C          8.59266        14.80296         1.54671
C          7.33339        14.26870         0.88481
C          8.61750        16.31351         1.63302
C          7.41308        17.03120         1.62340
C          8.67378        19.14515         1.77878
C          7.43990        18.44617         1.79185
C          8.67310        20.57363         1.81175
C          7.44628        21.28298         1.87116
C          8.69108        23.40595         1.82478
C          7.43920        22.73019         1.93068
C          8.74982        24.88060         1.88677
C          7.47993        25.66457         2.08973
C          8.58711        27.65671         1.11881
C          7.41701        27.05076         1.58276
C          8.51516        29.03833         0.58739
C          7.34985        29.88861         0.88173
C          8.59616        31.94237         0.31788
C          7.35808        31.24734         0.60736
C          8.61621        33.38538         0.21187
C          7.40734        34.15968        -0.10807
C          8.57947        36.06458        -1.31023
C          7.39425        35.34202        -0.84375
C          8.52563        36.93416        -2.46409
C          7.25750        37.18100        -3.08819
C         11.08004         3.94074        -2.20724
C          9.85791         4.68291        -2.16564
C         10.96962         6.47613        -0.82286
C          9.78845         5.96081        -1.52273
C         11.01325         7.90868        -0.47741
C          9.78238         8.60600        -0.42671
C         11.05332        10.62171         0.46201
C          9.77914         9.91750         0.24542
C         11.03760        12.02495         0.77212
C          9.80404        12.77416         0.70760
C         11.10007        14.82839         1.43505
C          9.83722        14.28719         0.81523
C         11.08457        16.19486         2.08955
C          9.84531        16.99496         1.77517
C         11.15627        19.11574         1.78442
C          9.89197        18.40442         1.76786
C         11.14916        20.56189         1.70874
C          9.92662        21.27183         1.72351
C         11.13826        23.41725         1.43255
C          9.90588        22.70585         1.65599
C         11.13119        24.82881         1.21627
C          9.91928        25.57214         1.32204
C         11.08741        27.64423         0.72342
C          9.85377        26.95008         1.04384
C         11.09466        29.03684         0.47830
C          9.82536        29.75913         0.27464
C         11.07137        31.89706         0.30568
C          9.81545        31.22678         0.31849
C         11.08688        33.31543         0.39656
C          9.84753        34.01324         0.40411
C         11.00561        36.54957        -1.18965
C          9.81313        36.01190        -0.64907
C         10.95529        37.33278        -2.39432
C          9.67207        37.55789        -2.96595
C         13.51705         3.78148        -1.86663
C         12.28333         4.44264        -1.70590
C         13.52960         6.45186        -0.77728
C         12.26833         5.70659        -0.93367
C         13.49197         7.81755        -0.28603
C         12.24071         8.51817        -0.11762
C         13.50518        10.51332         0.67489
C         12.26528         9.89357         0.33285
C         13.47177        11.85303         1.38125
C         12.24093        12.68419         1.10760
C         13.49319        14.72731         2.06205
C         12.25013        14.08083         1.46702
C         13.54526        16.23346         1.83789
C         12.38058        16.95908         1.88218
C         13.62860        19.15367         1.97135
C         12.35694        18.40658         1.84339
C         13.63868        20.60302         1.66486
C         12.38808        21.28150         1.58256
C         13.60012        23.38635         1.15915
C         12.36845        22.69574         1.38837
C         13.58391        24.79611         0.93330
C         12.35349        25.51927         0.95169
C         13.57070        27.63471         0.57801
C         12.33194        26.93108         0.74744
C         13.54071        29.05022         0.44428
C         12.31920        29.74833         0.37763
C         13.51038        31.91758        -0.00599
C         12.31477        31.19620         0.23994
C         13.49233        33.34444        -0.14172
C         12.32792        33.99820         0.24028
C         13.42782        36.31258        -1.45851
C         12.28239        36.10634        -0.72525
C         13.41610        37.42351        -2.40505
C         12.15650        37.86369        -2.91351
C         15.95797         3.70233        -1.53779
C         14.73237         4.39097        -1.46577
C         16.00150         6.45670        -0.85451
C         14.71307         5.78063        -1.04003
C         15.99010         7.84703        -0.27776
C         14.69294         8.47474         0.02342
C         16.00628        10.44019         0.78200
C         14.71825         9.81033         0.53726
C         16.02525        11.91003         0.89338
C         14.72970        12.65755         1.14799
C         15.98650        14.65404         1.81707
C         14.76976        14.04240         1.64816
C         16.14614        16.14268         1.72531
C         14.85867        16.91579         1.68398
C         16.19181        19.08238         1.63106
C         14.91747        18.38730         1.95716
C         16.18191        20.60175         1.78573
C         14.85439        21.28287         1.48350
C         16.05786        23.37430         0.84842
C         14.83949        22.67516         1.18158
C         16.02255        24.73862         0.54766
C         14.80577        25.48351         0.66034
C         16.06356        27.58227         0.34985
C         14.80427        26.89956         0.52483
C         16.07907        29.06060         0.39873
C         14.79582        29.82244         0.39348
C         15.94360        31.90606        -0.42281
C         14.77527        31.22990        -0.07847
C         15.95005        33.30696        -0.73899
C         14.63779        34.01088        -0.84955
C         15.86828        36.01538        -2.09620
C         14.59364        35.37446        -1.50336
C         15.79760        37.55785        -1.76692
C         14.63658        38.06641        -2.60393
C         18.43005         3.57294        -1.21354
C         17.19431         4.29782        -1.15139
C         18.44906         6.29135        -0.40289
C         17.22648         5.65074        -0.74854
C         18.47168         7.64295         0.06227
C         17.18398         8.26117         0.55719
C         18.49201        10.40903         0.90929
C         17.22437         9.76047         0.75294
C         18.57962        11.80662         1.51822
C         17.25416        12.54055         1.39250
C         18.94906        14.90031         1.64569
C         17.13023        13.78401         1.92657
C         18.68734        16.23296         1.38374
C         17.45937        16.91323         2.01145
C         18.67866        19.10506         1.43317
C         17.35140        18.37931         1.55635
C         18.56469        20.54476         0.97858
C         17.36735        21.27309         1.13045
C         18.52522        23.33189         0.44764
C         17.31074        22.63690         0.77642
C         18.53164        24.73816         0.22116
C         17.21922        25.41422        -0.07769
C         18.51907        27.60654        -0.01854
C         17.25019        26.90575         0.13024
C         18.54708        29.01588        -0.13395
C         17.24678        29.70691        -0.26107
C         18.51705        31.80920        -1.00814
C         17.18459        31.12791        -0.68781
C         18.44042        33.32394        -0.96040
C         17.13693        33.97553        -1.03662
C         18.31715        35.84483        -1.94894
C         17.11604        35.30875        -1.60208
C         18.29849        38.03688        -2.17502
C         17.03616        38.44625        -1.80982
C         19.62534         4.19784        -0.95318
C         20.89206         6.25372        -0.32879
C         19.67135         5.57178        -0.56128
C         20.89949         7.59344         0.00738
C         19.68796         8.31437         0.22206
C         20.89245        10.48870         0.50503
C         19.68841         9.73492         0.60092
C         20.89675        11.87489         0.56814
C         19.77299        12.62251         0.97166
C         20.73476        14.76263         0.05171
C         19.84023        14.05466         0.91625
C         20.66282        16.13126        -0.06734
C         19.66417        16.92377         0.59794
C         20.81527        19.04201         0.10626
C         19.70943        18.33663         0.62674
C         20.88267        20.41936         0.15740
C         19.74304        21.19009         0.53554
C         20.96662        23.33827         0.23970
C         19.75568        22.62051         0.40229
C         20.96308        24.71191         0.14017
C         19.74261        25.43653         0.09898
C         20.94342        27.63552        -0.14387
C         19.75031        26.89866        -0.03696
C         20.95003        29.03205        -0.18757
C         19.74599        29.75109        -0.18727
C         20.92473        32.03012        -0.39231
C         19.64690        31.27405        -0.09640
C         20.88586        33.30826        -0.83343
C         19.63186        34.01420        -1.04669
C         20.75782        36.31004        -1.70073
C         19.57168        35.52814        -1.18908
C         20.72860        37.68002        -1.87400
C         19.59144        38.54167        -1.85881
O         18.35911        36.83234        -2.91414
O          6.30406        33.14968         1.81949
O         12.34333        35.37105         0.46457
O          8.99510        29.17447        -0.79353
O          5.61276        29.88563         2.65667
O          8.40013        25.45796         3.20893
O         15.62012        29.66568         1.64206
O         14.25117        34.17446        -2.29978
O         16.22306         7.66693        -1.70142
O          4.46731        18.40114         3.48315
O         15.56739        16.57053         0.43834
O          1.60419        11.97767         1.21123
O          8.89008         9.93590         1.43732
O          2.68911        25.24000         3.22585
O          1.40724        24.01919         0.12987
O         18.20780        14.29498         2.66767
O         16.91548        30.04580        -1.67085
O         14.35476        18.80214         3.24605
O          0.98439         7.01214        -1.69546
O         11.45605         5.61869         0.28531
O          9.87346        35.39998         0.61240
O         15.29297        12.56745        -0.20547
O          5.06603        10.18593        -2.57445
O          1.12524        19.80285         3.65821
O          5.56042        25.35869         3.53964
O         13.41806        14.54991         3.50809
H         12.53555        14.90212         3.79335
O          4.47785        21.01182         0.40521
H          5.15632        21.39846        -0.18689
O         13.47241        11.55132         2.81403
H         12.58722        11.20365         3.05312
O          4.68763        35.14305         1.39249
H          5.06336        34.62471         2.14436
O          4.02713        20.90847         4.01863
H          3.39152        20.39785         4.56366
O         16.38777        20.77378         3.23371
H         15.67327        20.24813         3.67262
O          2.40736        14.00865         2.50813
H          1.85468        13.20108         2.63616
O          5.96400        37.12663        -0.17066
H          5.58237        36.71248         0.64260
O          1.22538        29.68564         2.84120
H          0.50471        29.26469         3.35350
O         15.38984        37.59153        -0.36459
H         15.23268        38.52426        -0.10863
O          0.96905        33.88398         1.69250
H          1.80213        33.65808         2.15930
O         16.93711         7.67156         1.87520
H         17.61342         8.02170         2.49322
O         17.02682        25.22686        -1.53729
H         17.76007        25.69751        -1.98857
O         11.01584        15.93244         3.54355
H         11.00383        16.80121         3.99966
O         17.62485        16.96068         3.44071
H         18.38171        17.57108         3.61579
O          2.29906        29.25439        -0.63184
H          2.98041        29.71145        -1.16695
O         19.18610        19.17421         2.82314
H         18.62043        19.83481         3.28579
O         19.25367        31.57618         1.27022
H         19.94753        31.23881         1.87392
O         19.31244        36.03663         0.17485
H         20.06689        35.75983         0.73675
O          8.63640        14.25450         2.88540
H          7.86878        14.59926         3.38683
O         18.84582        11.58787         2.93759
H         18.81092        12.47478         3.36555
O         15.78892        35.89679        -3.52590
H         15.42766        35.00060        -3.71422
O          4.92397        14.95588        -1.14886
H          5.77806        14.67432        -1.54238
O          9.75457        14.82660        -0.54333
H         10.55675        14.54122        -1.02941
O         18.88016        31.49197        -2.36877
H         18.28391        30.76025        -2.66066
H          2.07647         4.23201        -6.00636
H         -0.30087         4.70163        -5.39818
H         -0.78077         5.98422        -3.27920
H         -0.99589         8.58979        -1.76904
H         -0.95940        11.02110        -1.23380
H         -0.94917        12.86439        -0.71773
H         -0.89922        15.10654         0.11161
H         -1.00459        16.69601         1.15921
H         -1.04010        18.87812         2.21072
H         -1.02602        20.86084         2.29149
H         -0.96465        23.08293         1.29933
H         -1.03433        25.07268         1.26408
H         -1.00521        27.48653         1.53396
H         -1.05213        29.28000         0.86435
H         -0.98315        31.55152         0.00897
H         -1.11228        33.51325        -0.09675
H         -0.99399        35.29630        -1.75805
H          0.24388        36.85207        -3.13809
H          4.38976         4.14209        -5.33008
H          2.38656        37.80003        -3.96368
H          6.54285         3.70181        -4.35704
H          4.84103        37.75009        -4.00142
H          8.78233         3.27033        -3.41911
H          7.23022        37.77763        -4.01283
H         11.08534         2.98152        -2.74646
H          9.58284        38.20508        -3.85052
H         13.54004         2.77993        -2.32140
H         12.12492        38.61388        -3.71669
H         15.96041         2.65849        -1.88568
H         14.73898        38.91988        -3.28946
H         18.41049         2.51517        -1.51332
H         16.94387        39.37989        -1.22974
H         20.57057         3.64362        -1.04846
H         21.84180         5.71108        -0.44164
H         21.86749         8.08941         0.15753
H         21.83177         9.98427         0.24448
H         21.83292        12.39999         0.32909
H         21.47271        14.21274        -0.54866
H         21.37692        16.62826        -0.73742
H         21.65504        18.49217        -0.33918
H         21.78053        20.92145        -0.22472
H         21.92764        22.80771         0.24200
H         21.92281        25.23862         0.06303
H         21.91137        27.11799        -0.16867
H         21.91528        29.55440        -0.23624
H         21.89637        31.56642        -0.16445
H         21.82739        33.85731        -0.98861
H         21.73994        35.81327        -1.73734
H         21.70868        38.18052        -1.96992
H         19.73352        39.60449        -1.61398
