         320
 CSIRO Nanostructure Databank - Neutral Graphene Oxide Data Set
C         30.23029        31.60292         0.35869
C         30.27034        32.83039         0.32732
C         30.33557        36.00845         0.02811
C         30.18077        37.25690         0.07159
C         30.30542        40.53123        -0.15496
C         30.32849        41.76245        -0.02982
C         32.58140        29.04169        -0.61338
C         31.52916        29.45354        -0.13749
C         32.66284        31.44972         0.83500
C         31.09819        30.49349         0.79859
C         32.64880        32.94035         0.79416
C         31.32138        33.76784         0.87115
C         32.63371        35.89286         0.23436
C         31.41047        35.13355         0.25113
C         32.63107        37.28843         0.19811
C         31.37482        38.09303         0.26026
C         32.73342        40.38075        -0.15159
C         31.40909        39.60554         0.14160
C         32.73769        41.79896         0.45020
C         31.35613        42.52843         0.76328
C         32.73199        44.47421         0.70767
C         31.60702        43.99256         0.49633
C         35.23479        27.36969        -0.75942
C         35.14051        28.71773        -0.51954
C         33.95754        29.64181        -0.66008
C         35.18757        31.52815         0.45953
C         33.94707        30.63616         0.56789
C         35.15230        32.88539         0.36093
C         33.83703        33.63504         0.12492
C         35.14888        35.84263        -0.09130
C         33.92577        35.12267         0.56855
C         35.17994        37.33686         0.28759
C         33.88458        38.07721        -0.16769
C         35.17068        40.19016         0.67153
C         33.88710        39.52136         0.26953
C         35.21568        41.70651         0.25215
C         33.93249        42.45507         0.57768
C         35.25565        44.59174         0.87370
C         34.05549        43.92611         0.76223
C         35.55058        45.98884         0.77570
C         37.73949        27.15867        -0.59335
C         36.45592        26.84656        -0.65591
C         37.71950        28.79950        -0.74328
C         36.45108        29.36702        -0.11726
C         37.79362        31.52161         0.59137
C         36.47547        30.76003         0.43166
C         37.69470        32.94802         0.00658
C         36.42930        33.67258         0.43164
C         37.73683        35.85256        -0.13813
C         36.46193        35.16657         0.27841
C         37.72337        37.29598        -0.62206
C         36.42049        38.06214        -0.26714
C         37.71753        40.28539         0.02739
C         36.40825        39.53209         0.02993
C         37.75601        41.61629         0.74039
C         36.46174        42.36030         0.86359
C         37.78317        44.37670         0.12818
C         36.59363        43.87665         1.05477
C         37.79592        45.90319        -0.16286
C         36.64830        46.48853         0.42714
C         40.22375        24.42849        -1.00338
C         39.10762        24.99920        -0.93987
C         40.17573        27.19868        -1.24215
C         39.06552        26.44933        -0.42178
C         40.21785        28.81544        -0.95464
C         39.01787        29.30452        -0.08585
C         40.21346        31.50400        -0.08988
C         39.02805        30.82124         0.02391
C         40.21258        33.02435        -0.20030
C         38.96525        33.75354         0.37713
C         40.22300        35.85721        -0.56334
C         38.91627        35.18577        -0.14339
C         40.23577        37.35640        -0.26851
C         39.00601        38.03527        -0.22162
C         40.25238        40.19915         0.27644
C         38.99856        39.50951        -0.17034
C         40.25638        41.72640         0.19552
C         39.09110        42.34543         0.99850
C         40.29499        44.51756         0.90976
C         39.08697        43.84622         0.72757
C         40.42444        45.90498         1.23300
C         38.75391        46.45223        -1.00669
C         40.37088        48.38183        -0.68487
C         39.29256        47.77497        -0.86840
C         42.79327        24.54433        -0.50252
C         41.56642        24.74540        -0.93300
C         42.72655        27.24562        -0.38500
C         41.63442        26.62990        -1.23520
C         42.71356        28.64740        -0.30535
C         41.50855        29.41322        -0.41781
C         42.77110        31.50593         0.13198
C         41.48032        30.79517        -0.24410
C         42.76388        33.02923        -0.20420
C         41.49173        33.68084         0.36679
C         42.75787        35.91937         0.01207
C         41.45463        35.19746         0.09446
C         42.76620        37.28600        -0.62604
C         41.48718        38.01959        -0.22613
C         42.89431        40.14313         0.29227
C         41.54432        39.41749         0.20861
C         42.75367        41.65158        -0.11774
C         41.61083        42.32136         0.67259
C         42.95073        44.45981         1.04194
C         41.62227        43.86104         0.47496
C         42.91509        45.98949         0.87492
C         41.65181        46.60194         1.13644
C         42.87759        48.64280        -0.39356
C         41.55094        48.59286         0.05132
C         43.88599        25.11729        -0.03406
C         44.96102        27.30052         0.78868
C         43.90974        26.51510         0.03181
C         45.28426        28.63031         0.05053
C         44.02652        29.34789        -0.34325
C         45.30221        31.59969        -0.41655
C         44.01060        30.84317        -0.45484
C         45.30863        33.16205        -0.38492
C         44.05746        33.71773         0.33733
C         45.23856        35.92446         0.14338
C         44.06303        35.22472         0.13553
C         45.26986        37.36170        -0.15659
C         44.07604        38.02187        -0.33471
C         45.33264        40.24703        -0.31605
C         43.99329        39.50060        -0.59055
C         45.20164        41.72652        -0.82796
C         44.05588        42.43769        -0.08408
C         45.15505        44.66611        -0.34131
C         44.11121        43.74606         0.28506
C         45.40620        45.95138         0.55556
C         44.09476        46.69847         0.56089
C         43.84529        48.02953         0.17865
C         47.32239        27.45794         1.31203
C         46.34604        26.74269         1.04317
C         47.62993        28.83242         0.96430
C         46.55000        29.40282         0.27781
C         47.78001        31.62650         0.35315
C         46.58510        30.82994        -0.13382
C         47.41687        32.96229         0.85534
C         46.45835        33.76437         0.37191
C         47.82029        35.87723         0.09804
C         46.49518        35.26164         0.68824
C         47.76310        37.41454         0.01408
C         46.57802        38.05689        -0.25446
C         47.88237        40.25752        -0.94271
C         46.52451        39.44548        -0.90810
C         47.79296        41.75746        -0.58311
C         46.49054        42.47837        -0.58789
C         47.71216        44.68118        -1.21498
C         46.42058        43.94920        -0.85908
C         47.56188        46.03273        -0.65780
C         46.58868        46.58995        -0.13672
C         49.92791        29.17619         2.03870
C         48.81530        29.54633         1.34473
C         50.23907        31.80650         1.48044
C         49.12830        30.96759         0.75557
C         50.42367        33.17600         1.23255
C         49.28818        34.06628         1.22070
C         50.45510        35.92186         0.16828
C         49.15084        35.31252         0.66352
C         50.37965        37.45645         0.24344
C         49.05271        38.16957         0.14546
C         50.32714        40.24090        -0.74772
C         49.05182        39.69938        -0.06584
C         50.32673        41.71579        -1.12669
C         49.10739        42.57537        -0.66700
C         50.34756        44.51761        -1.32342
C         48.98664        43.87240        -1.55507
C         51.06594        29.69728         2.35170
C         52.51535        31.85553         2.22642
C         51.35127        31.02826         2.07444
C         52.65944        33.07230         1.99518
C         51.80278        33.83773         1.01721
C         52.83870        36.17849         0.69792
C         51.65188        35.35267         1.15233
C         52.73169        37.41036         0.45309
C         51.66929        38.20873         0.01692
C         52.80999        40.40959        -0.75838
C         51.66860        39.48859        -0.67264
C         52.76159        41.65081        -0.88747
C         51.86043        42.69786        -0.42496
C         51.41145        43.91181        -1.11315
O         31.34033        39.00738         1.42849
O         36.10486        39.03341        -1.31485
O         41.95902        35.92017         1.25417
O         32.86024        32.21843         2.05613
O         46.15306        39.20083        -2.32694
O         47.12323        42.11110         0.65922
O         40.77716        39.63809         1.49167
O         36.52436        34.54546         1.59775
O         44.88331        28.67251        -1.34193
O         47.57939        31.37799        -1.08145
O         36.99122        41.61527         1.98607
O         48.20889        33.47050         1.89216
O         49.67980        37.87600         1.47577
O         38.34126        40.22627        -1.28123
O         50.79768        39.42261        -1.86013
O         46.70512        44.37819        -2.22564
O         36.52682        29.58111         1.33775
O         40.15684        29.43326        -2.20780
O         44.63413        31.25353        -1.69220
O         41.49025        48.00043         1.40302
O         45.59601        40.30686         1.08348
H         45.36334        39.45011         1.49894
O         41.65585        44.18197        -0.94863
H         42.59445        44.31383        -1.24157
O         37.64794        43.70263        -1.12743
H         38.47116        43.20210        -1.35773
O         39.11464        28.80083         1.25229
H         38.23485        28.93672         1.68272
O         40.13025        33.25549        -1.62397
H         41.02334        33.09597        -2.02667
O         30.79953        30.02766         2.05652
H         30.42975        30.75028         2.60112
O         43.59686        39.61972        -1.98288
H         44.39398        39.35575        -2.51388
O         37.55311        32.81763        -1.41689
H         38.45244        32.81327        -1.83594
O         35.25349        40.03466         2.12845
H         34.39606        40.32735         2.50514
O         46.46670        35.51323         2.10139
H         47.02902        34.83590         2.54223
O         46.92034        38.07894        -2.83342
H         47.81268        38.49370        -2.98502
O         33.52159        33.57305        -1.27611
H         34.22502        34.06268        -1.76957
O         47.85733        35.43752        -1.28501
H         48.75925        35.61567        -1.64469
O         42.71573        33.18702        -1.62677
H         43.57457        32.88269        -2.02154
O         42.41174        41.71282        -1.52678
H         41.82826        40.95984        -1.76649
O         34.06889        29.80067         1.72459
H         33.94639        30.36651         2.51622
O         33.77956        38.03610        -1.65341
H         34.57961        38.53147        -1.97786
O         39.42299        26.36104         0.94226
H         38.65384        26.05192         1.46263
O         48.34905        40.22299        -2.30469
H         47.74812        40.76744        -2.85821
O         34.11659        30.41750        -1.84144
H         34.27776        29.81703        -2.59856
O         35.05429        35.71780        -1.52270
H         34.42761        36.41068        -1.85932
O         50.70324        35.57932        -1.20093
H         51.25714        34.75846        -1.23342
O         42.94610        31.25856         1.54746
H         42.30211        31.83326         2.03053
O         44.40583        27.67870         2.04800
H         44.05203        26.87888         2.48987
O         31.08887        42.34167         2.12846
H         30.21213        42.71924         2.34535
O         45.30921        33.63819        -1.73842
H         46.12725        33.32067        -2.17596
O         41.55864        33.47165         1.79085
H         40.72032        33.84218         2.18088
O         32.78180        40.60630        -1.60235
H         32.87776        39.71809        -2.02379
O         44.25194        33.43427         1.72910
H         43.45931        33.76821         2.21103
O         40.34512        35.74955        -1.99650
H         39.51058        36.10123        -2.38548
O         37.63849        29.12536        -2.10040
H         38.56533        29.22132        -2.47879
O         48.85716        43.48866        -2.90772
H         48.77261        44.29193        -3.46026
O         31.03295        34.01105         2.24278
H         31.55980        33.36382         2.77095
O         37.78623        37.23210        -2.07608
H         37.58967        38.14180        -2.40265
O         43.10212        44.24854         2.44541
H         43.06324        43.27549         2.61572
O         49.85437        30.69600        -0.45967
H         49.18716        30.60819        -1.18656
O         39.99566        42.10757        -1.17220
H         40.60088        42.86095        -1.41287
O         39.05408        33.92306         1.80800
H         38.47436        33.26043         2.25764
O         37.97496        31.61478         2.03334
H         37.62373        30.78322         2.42687
O         39.39436        46.55941         1.80176
H         39.70135        47.47920         1.98724
O         35.36728        41.75764        -1.17348
H         34.51669        41.45217        -1.57927
O         42.09906        26.66685        -2.53282
H         43.07720        26.61509        -2.54834
O         44.99214        41.77306        -2.24449
H         44.02300        41.64962        -2.40710
O         39.71546        27.06469        -2.57670
H         40.02205        27.88508        -3.04960
O         39.33501        42.20975         2.41405
H         38.47156        42.40046         2.85937
O         41.85212        42.03235         2.05360
H         41.01790        42.17429         2.56895
O         45.75945        45.53825         1.85548
H         45.61037        46.26692         2.49113
O         51.31974        35.64751         2.47923
H         51.07934        36.59532         2.56272
O         50.55039        41.82774        -2.48531
H         50.91221        40.96746        -2.80773
O         44.42817        45.15459        -1.50010
H         45.07115        45.16400        -2.25441
O         43.31090        39.98625         1.64684
H         42.51728        40.12563         2.21584
O         52.24977        33.56091        -0.30889
H         52.35993        32.59135        -0.41290
O         39.41816        45.63305        -1.86543
H         40.16585        46.10588        -2.28171
O         37.04714        44.12958         2.39934
H         36.30590        43.96813         3.01953
O         34.00990        35.08388         1.99105
H         34.46167        35.90585         2.30461
O         35.27353        37.37339         1.72291
H         35.25730        38.31656         2.04499
O         42.74100        37.07520        -2.05880
H         42.81325        37.95827        -2.48856
O         48.95647        40.31460         1.22671
H         49.25347        39.65244         1.89538
O         51.92628        42.83395         0.93754
H         51.28112        43.51832         1.22107
O         49.35917        43.05993         0.66185
H         49.04971        42.37052         1.29686
