         349
 CSIRO Nanostructure Databank - Neutral Graphene Oxide Data Set
C          1.21959         3.53212        -0.95466
C          0.07170         4.25577        -1.01671
C          1.06761         6.23831         0.04841
C         -0.01082         5.59267        -0.49359
C          1.00557         7.63720         0.55090
C         -0.18651         8.47573         0.28760
C          1.00516        10.61226         0.73035
C         -0.19712         9.81881         0.39676
C          1.03363        12.07893         0.41902
C         -0.15716        12.82274         0.52967
C          1.04539        14.91953         0.20313
C         -0.15638        14.20476         0.41727
C          1.05401        16.36170         0.09089
C         -0.05969        17.13472         0.40930
C          1.08791        19.27034        -0.04806
C         -0.06701        18.53041         0.29661
C          1.07483        20.67431        -0.16089
C         -0.07522        21.49368         0.08989
C          1.00292        23.57704        -0.87748
C         -0.09013        22.83537        -0.13330
C          1.12050        25.03421        -0.46403
C         -0.06041        25.77521        -0.26412
C          1.20127        27.81263         0.11201
C         -0.02700        27.13378         0.03138
C          1.25429        29.21807         0.39977
C          3.70910         3.47351        -0.50730
C          2.39408         4.04673        -0.24355
C          3.61912         6.25212         0.35301
C          2.33727         5.50908         0.27449
C          3.60848         7.65763         0.54194
C          2.31668         8.34758         0.84389
C          3.54340        10.53141         0.42786
C          2.29534         9.85655         0.90604
C          3.50292        11.96796         0.02245
C          2.24933        12.76256         0.18311
C          3.50970        14.92771        -0.04127
C          2.26245        14.17902         0.09635
C          3.54097        16.28148        -0.21451
C          2.26122        17.03782        -0.51909
C          3.53641        19.20345        -0.30722
C          2.34352        18.53873        -0.25851
C          3.60514        20.70231        -0.03080
C          2.33514        21.35791        -0.53060
C          3.61187        23.56534        -0.66550
C          2.33460        22.82519        -0.81278
C          3.60680        24.94425        -0.63096
C          2.37080        25.68431        -0.44095
C          3.64102        27.79379        -0.09467
C          2.41681        27.09572        -0.14395
C          3.69491        29.17984         0.28859
C          2.44587        29.87813         0.48271
C          6.13258         3.48560        -0.31134
C          4.87595         4.14607        -0.17163
C          6.07976         6.25655         0.33443
C          4.84743         5.55532         0.20726
C          6.04255         7.66026         0.51154
C          4.82664         8.37048         0.56089
C          6.06524        10.60480         0.31802
C          4.85264         9.87016         0.87472
C          6.07067        11.95387         0.12577
C          4.80425        12.69870        -0.10756
C          6.04187        14.92586         0.25475
C          4.79625        14.18433        -0.11583
C          6.10262        16.33453        -0.10226
C          4.83238        16.98930        -0.57926
C          6.10638        19.18357        -0.30447
C          4.81352        18.45948        -0.21214
C          6.08633        20.59207        -0.86815
C          4.85605        21.41732        -0.53172
C          6.11373        23.53801        -0.81618
C          4.85483        22.79034        -0.71321
C          6.14562        24.91989        -0.72887
C          4.86520        25.69375        -1.02571
C          6.17179        27.82843        -0.24581
C          4.87943        27.14908        -0.56316
C          6.18661        29.06078         0.63571
C          4.90548        29.82990         0.52198
C          8.58263         3.45352        -0.25081
C          7.34982         4.14153        -0.09753
C          8.57892         6.21431         0.34087
C          7.35292         5.55665         0.21871
C          8.61353         7.66556         0.59252
C          7.31060         8.40692         0.67761
C          8.62717        10.51875        -0.01789
C          7.31237         9.82680         0.20577
C          8.66133        12.01403        -0.07425
C          7.33391        12.73201        -0.04132
C          8.61261        14.91321         0.24090
C          7.33777        14.16574         0.39130
C          8.60033        16.25631        -0.00593
C          7.34260        17.00774        -0.18378
C          8.59773        19.18488        -0.05177
C          7.36697        18.40331        -0.40978
C          8.57447        20.62481        -0.52492
C          7.40722        21.30682        -0.67369
C          8.66398        23.51444        -0.67532
C          7.38130        22.77798        -0.90308
C          8.62193        24.95570        -0.39423
C          7.39447        25.64578        -0.50522
C          8.62728        27.73648        -0.03959
C          7.42194        27.04144        -0.25447
C          8.61957        29.20261         0.08169
C          7.43090        29.86016         0.35286
C         11.04314         3.43049        -0.35502
C          9.81714         4.10976        -0.12756
C         11.05903         6.20399         0.29679
C          9.83141         5.52730         0.17391
C         11.09769         7.65737         0.41137
C          9.87178         8.39869         0.34337
C         11.08663        10.54150         0.38791
C          9.89047         9.80391         0.28032
C         11.05973        11.96591         0.52660
C          9.89379        12.69548         0.35394
C         11.16414        14.86291         0.30065
C          9.87141        14.17805         0.68567
C         11.16964        16.25550         0.10767
C          9.89454        16.96557        -0.22530
C         11.14183        19.21716        -0.11035
C          9.89382        18.45837        -0.35565
C         11.12523        20.58702        -0.15187
C          9.91422        21.32618        -0.70054
C         11.11183        23.50465        -0.16587
C          9.81802        22.73204        -0.09398
C         11.08212        24.87594        -0.07341
C          9.83790        25.62338        -0.12663
C         11.11524        27.76175        -0.08406
C          9.85465        27.03746        -0.01949
C         11.09250        29.22418        -0.18292
C          9.85979        29.89526        -0.06544
C         13.49951         3.45767        -0.60483
C         12.27638         4.09668        -0.27496
C         13.52506         6.15186         0.24838
C         12.29976         5.49651         0.10649
C         13.53333         7.56223         0.68808
C         12.30023         8.33763         0.51069
C         13.59031        10.54526         0.80353
C         12.39246         9.81437         0.22893
C         13.58180        11.90349         0.87278
C         12.31264        12.71591         0.94620
C         13.62449        14.84744         0.66240
C         12.43500        14.04758         0.16761
C         13.53579        16.28617         0.77156
C         12.33927        17.00294         0.30454
C         13.58983        19.18278         0.47741
C         12.43564        18.43573        -0.15119
C         13.57935        20.67521         0.40091
C         12.33639        21.37120        -0.00118
C         13.60136        23.49936        -0.06620
C         12.34613        22.75679        -0.08230
C         13.59379        24.86962        -0.06319
C         12.33784        25.62632         0.27671
C         13.54329        27.77352        -0.52258
C         12.30243        27.07575        -0.13418
C         13.56485        29.25674        -0.44992
C         12.31058        29.92562        -0.29305
C         15.91949         3.52210        -1.04000
C         14.72550         4.14362        -0.58970
C         15.97896         6.20742        -0.03951
C         14.76755         5.51592        -0.09106
C         16.10779         7.54764         0.59757
C         14.82465         8.27617         0.90217
C         16.17160        10.49499         0.94228
C         14.85568         9.77748         1.01025
C         16.14023        11.97823         0.74272
C         14.84497        12.69600         0.84235
C         16.15860        14.85943         1.00466
C         14.81502        14.14981         1.29005
C         16.17076        16.31921         0.91034
C         14.88338        17.06665         0.93196
C         16.07144        19.21916         0.55058
C         14.90523        18.50112         0.55680
C         16.08127        20.65905         0.33080
C         14.86887        21.37288         0.25472
C         16.08641        23.43200        -0.18986
C         14.86814        22.75979        -0.02698
C         16.04868        24.87641        -0.60279
C         14.89105        25.62439         0.05241
C         16.11894        27.75718        -0.51382
C         14.83567        27.02090        -0.54561
C         16.09685        29.24719        -0.78444
C         14.77080        29.91887        -0.51429
C         18.29990         3.68026        -1.70365
C         17.11215         4.24643        -1.18983
C         18.43349         6.41464        -0.85917
C         17.11257         5.67079        -0.80695
C         18.63249         7.62254        -0.00829
C         17.41594         8.30576         0.55862
C         18.59125        10.51485         0.34860
C         17.44434         9.79740         0.60648
C         18.55835        12.04706         0.24923
C         17.43904        12.65596         1.12068
C         18.64558        14.85481         1.06875
C         17.34337        14.16221         0.98858
C         18.64104        16.38738         1.01787
C         17.33601        17.05101         0.85175
C         18.60293        19.22353         0.41236
C         17.36061        18.56218         0.97862
C         18.57154        20.62133         0.15990
C         17.32120        21.34411         0.16013
C         18.55546        23.46724        -0.28783
C         17.31791        22.74153        -0.10903
C         18.53780        24.91600        -0.43238
C         17.35253        25.61370        -0.42020
C         18.57952        27.80373        -0.36033
C         17.31168        27.07043        -0.44560
C         18.55686        29.20466        -0.17431
C         17.24397        29.95505        -0.04688
C         19.50624         4.39262        -1.78896
C         20.83756         6.48381        -1.47637
C         19.63529         5.70832        -1.33238
C         20.92808         7.78891        -1.07949
C         19.90743         8.39262        -0.19661
C         21.03056        10.58953         0.08375
C         19.86612         9.85975         0.06831
C         21.05200        11.99169         0.35848
C         19.89614        12.72046         0.50086
C         21.04888        14.92069         0.58604
C         19.89969        14.15666         0.71541
C         21.03667        16.34013         0.53166
C         19.87286        17.08307         0.60966
C         20.99089        19.22188        -0.05112
C         19.81575        18.51282         0.32031
C         20.98133        20.59016        -0.22050
C         19.78020        21.33440        -0.10138
C         21.00838        23.53594        -0.19776
C         19.76989        22.77256        -0.23443
C         21.04124        24.87238        -0.37351
C         19.82168        25.63802        -0.80618
C         21.00380        27.84851        -0.34459
C         19.81246        27.11404        -0.43865
C         20.97798        29.23059        -0.14932
C         19.75991        29.90766        -0.06313
O          8.24546        23.19444        -2.04444
O         15.51847        12.48925        -0.46405
O          8.03186         8.10822         1.90316
O          1.55046         7.73337         1.91224
O         14.06584        16.79684         2.07891
O         13.33132        19.95507         1.68732
O          5.57526        28.02108        -1.56119
O          9.93689        17.62877        -1.56055
O          5.49987        18.91486         1.03237
O          3.42834        10.87168        -0.98172
O         17.44342         6.61722        -1.92402
O         19.68289         7.52095         0.98836
O          2.42531        21.82935        -1.91405
O          4.98693        10.02556         2.26117
O         18.76161        15.66399         2.28621
O          2.20059         4.37921         1.17630
O          8.05797        12.57377        -1.29793
O         14.09237        27.19914        -1.79288
O         15.57314        10.15932         2.23779
O          6.56933        14.51214         1.57679
O          4.90092        13.45968        -1.38877
O          7.91057         9.91371        -1.14228
O         16.99755         7.59956         1.77252
O         14.12855         7.70814         2.05984
O          1.61624        10.38638         2.06371
O         17.45051        18.80999         2.42233
H         16.65708        18.42154         2.84914
O         14.70030        14.13430         2.74269
H         14.43927        15.04468         3.01699
O          4.85979        16.99014        -2.05532
H          5.02615        16.06786        -2.35116
O         16.35687        29.41272        -2.21676
H         15.66775        28.89428        -2.68883
O          6.26850        28.55183         2.01924
H          6.39566        29.32088         2.61368
O          8.59547        19.28634         1.41950
H          7.66193        19.35471         1.71981
O         12.76446        18.35155        -1.58361
H         11.93185        18.08789        -2.04534
O          3.60474        20.85615         1.41827
H          4.30934        20.25328         1.76093
O          0.56370        23.60070        -2.26407
H          0.96352        22.80668        -2.69266
O          9.75960        14.23753         2.14752
H         10.61152        13.89085         2.52134
O          4.79188        25.72637        -2.48332
H          5.25581        26.54897        -2.76808
O         17.76129        12.34802         2.48686
H         17.04339        12.67986         3.06652
O         19.84215        25.60966        -2.28111
H         19.13558        26.21521        -2.59253
O         10.19305        21.41223        -2.11508
H          9.48561        21.97264        -2.52217
O         12.67488         9.86109        -1.23216
H         12.62499        10.80272        -1.51263
O          9.50164        22.57782         1.31944
H         10.09217        21.88854         1.69345
O         15.17541        25.77194         1.46633
H         14.31111        25.89706         1.92872
O          2.08495        16.91129        -1.97098
H          2.96000        17.12582        -2.38000
O         15.77791        24.88703        -2.03554
H         16.49591        24.39278        -2.48348
O         17.36636        31.28460        -0.54919
H         17.32290        31.21552        -1.52794
O         18.21340        12.36688        -1.12514
H         18.90842        11.99868        -1.70930
O         12.36024        25.69200         1.77404
H         12.07288        24.81420         2.10888
O          5.99022        20.36644        -2.31260
H          5.98668        21.23954        -2.76035
O         12.60690        13.65323        -1.23599
H         12.71160        14.46625        -1.77318
O         12.17267        13.07945         2.35340
H         12.42198        12.30954         2.90724
H          1.30545         2.56657        -1.47454
H         -0.80825         3.84803        -1.53370
H         -0.96857         6.11841        -0.60933
H         -1.11278         7.96962        -0.02121
H         -1.12252        10.35910         0.14751
H         -1.10662        12.30705         0.72723
H         -1.11242        14.73935         0.49226
H         -0.97739        16.65091         0.77237
H         -1.00221        19.06116         0.52051
H         -0.97665        21.02392         0.51086
H         -1.02038        23.38040         0.08150
H         -1.03632        25.28101        -0.35732
H         -0.96388        27.68643         0.19006
H          0.30852        29.75514         0.56224
H          3.77028         2.47634        -0.96993
H          2.47604        30.94989         0.72644
H          6.13758         2.42138        -0.59175
H          4.89330        30.88699         0.83158
H          8.56443         2.38125        -0.49787
H          7.40871        30.95774         0.43238
H         11.02002         2.36532        -0.63017
H          9.85148        30.99590        -0.05615
H         13.47810         2.40924        -0.93869
H         12.29787        31.02603        -0.27821
H         15.88957         2.46374        -1.33993
H         14.78106        31.01975        -0.47973
H         18.27800         2.63218        -2.03597
H         16.98389        30.02881         1.04467
H         20.39239         3.88459        -2.19718
H         21.67504         6.02793        -2.02616
H         21.82295         8.37429        -1.33609
H         21.99237        10.08109        -0.07142
H         22.03403        12.47124         0.47182
H         22.01093        14.42641         0.39183
H         21.99258        16.83403         0.31132
H         21.94096        18.68431        -0.16755
H         21.92085        21.09954        -0.47235
H         21.93943        23.01008         0.05781
H         22.00277        25.39855        -0.29197
H         21.97564        27.34463        -0.43402
H         21.92251        29.78754        -0.07591
H         19.73327        30.99741         0.07526
