         294
 CSIRO Nanostructure Databank - Neutral Graphene Oxide Data Set
C          1.38669         2.03719         1.41216
C          1.36694         3.45748         1.24897
C          2.50941         1.31313         1.12744
C          2.45337         4.13623         0.74725
C          1.27962         6.47460         0.92291
C          1.39305         7.82575         0.91068
C          2.47380         5.62836         0.69178
C          2.57490         8.53964         0.42847
C          2.02625        10.54871         1.81090
C          1.98056        11.90031         1.94062
C          2.79229         9.86032         0.77857
C          2.61785        12.82725         0.97361
C          1.70539        15.01836         1.85671
C          1.72724        16.37601         1.93179
C          2.77127        14.27641         1.24445
C          2.93161        17.19320         1.54020
C          2.59051        18.47948         0.79881
C          3.68906         1.94897         0.59300
C          3.63879         3.38893         0.34327
C          4.84052         1.20674         0.38787
C          4.75119         4.02696        -0.18476
C          3.60515         6.31019        -0.00405
C          3.40159         7.72191        -0.59396
C          4.73901         5.47151        -0.50518
C          4.75702         8.32877        -0.96452
C          3.72587        10.72842        -0.01515
C          3.50150        12.20413        -0.05653
C          4.80867         9.59977        -1.43661
C          4.68451        12.90991        -0.69093
C          3.84309        14.98199         0.65986
C          3.91820        16.37958         0.71971
C          4.86987        14.30975        -0.20572
C          4.81544        17.10649        -0.24400
C          3.51881        19.15022         0.09862
C          4.93164        18.60681         0.11391
C          6.05612         1.78062        -0.18458
C          5.98843         3.28780        -0.49792
C          7.37848         1.18517         0.02977
C          7.28371         4.01404        -0.33748
C          6.02540         6.21517        -0.65647
C          5.99660         7.70396        -0.37386
C          7.29305         5.50397        -0.34072
C          7.29179         8.40285        -0.72897
C          5.87564        10.56362        -0.91597
C          5.81468        12.05118        -1.40381
C          7.19722         9.82253        -1.28182
C          7.20007        12.86946        -1.38383
C          6.24000        14.93993        -0.07951
C          6.13915        16.42861        -0.11960
C          7.28197        14.35337        -1.04924
C          7.36798        17.18724         0.28693
C          6.03919        19.24975        -0.73524
C          7.37333        18.64529        -0.25066
C          8.57695         1.89395        -0.21949
C          8.54417         3.29821        -0.46883
C          9.85303         1.23952        -0.12171
C          9.82376         4.07922        -0.29733
C          8.55068         6.25592        -0.53615
C          8.47139         7.71367        -0.63376
C          9.74139         5.57317        -0.63283
C          9.73076         8.46664        -0.30262
C          8.52498        10.59147        -1.30634
C          8.53622        12.10447        -1.67545
C          9.77532         9.86915        -0.90218
C          9.82492        12.86262        -1.10751
C          8.58231        15.21393        -1.13875
C          8.59515        16.38667        -0.16510
C          9.85848        14.36279        -0.97746
C          9.79194        16.90866         0.18525
C          8.47276        19.44870        -0.33708
C          9.82010        19.06562         0.06877
C         11.06501         1.88665        -0.46099
C         10.96562         3.31098        -1.00413
C         12.28076         1.21644        -0.46983
C         12.28126         4.08714        -0.91061
C         10.98723         6.33238        -0.72059
C         11.00604         7.69449        -0.58124
C         12.26741         5.57851        -0.84132
C         12.28651         8.43667        -0.22956
C         10.97437        10.64221        -0.42758
C         10.95373        12.13088        -0.38362
C         12.29579         9.91581        -0.67675
C         12.29143        12.86565        -0.03692
C         11.09461        15.02324        -0.45860
C         11.08488        16.40290        -0.20922
C         12.31191        14.32956        -0.38833
C         12.27496        17.17840        -0.18026
C         11.03600        19.42088        -0.43598
C         12.27454        18.65118        -0.20453
C         13.54222         1.90820        -0.92501
C         13.50416         3.34749        -0.36584
C         14.81733         1.21651        -0.51145
C         14.79846         4.11083        -0.68714
C         13.49463         6.28462        -0.33115
C         13.55808         7.73757        -0.74745
C         14.75162         5.53204        -0.14999
C         14.84193         8.48988        -0.38376
C         13.54764        10.64051        -0.11532
C         13.55317        12.12643        -0.55577
C         14.83077         9.89272        -0.44090
C         14.80842        12.81609        -0.05839
C         13.49651        15.04397        -0.18923
C         13.49943        16.46566        -0.24280
C         14.77623        14.32451         0.20860
C         14.76802        17.18766        -0.19314
C         13.47839        19.32200        -0.21538
C         14.76394        18.65712        -0.18798
C         16.01364         1.92183        -0.29588
C         16.02542         3.33844        -0.28386
C         17.27093         1.23524         0.00357
C         17.28648         4.07675        -0.39606
C         16.03051         6.29715         0.03784
C         16.02495         7.76572        -0.11699
C         17.32609         5.52063        -0.00850
C         17.26900         8.48659         0.21085
C         16.09491        10.70906        -0.59102
C         15.96750        12.11410         0.05612
C         17.34074         9.93265        -0.16119
C         17.24254        12.89579         0.19449
C         15.93907        15.02636        -0.51268
C         15.95147        16.50017        -0.18586
C         17.25278        14.32356        -0.23133
C         17.20186        17.25023         0.20146
C         15.94463        19.34922        -0.31184
C         17.25380        18.61000        -0.51056
C         18.47553         1.88728         0.05132
C         18.57322         3.31527        -0.34221
C         19.69051         1.28287         0.59537
C         19.89551         4.04248        -0.15520
C         18.62984         6.23465        -0.07790
C         18.59011         7.69389         0.19543
C         19.81101         5.56374        -0.13390
C         19.89209         8.40930         0.10732
C         18.62180        10.43084        -0.36569
C         18.44806        12.48479         0.98405
C         19.81176         9.89496         0.41969
C         19.71815        12.92109         0.63811
C         18.48992        15.03976         0.28708
C         18.49914        16.51637         0.02854
C         19.78184        14.23500        -0.15375
C         19.67965        17.24179         0.59640
C         18.50091        19.35547        -0.11674
C         19.68127        18.71797         0.22499
C         20.69088         2.04474         1.08976
C         20.54682         3.55309         1.14868
C         21.82638         4.30595         1.42358
C         21.17190         6.25268        -0.06199
C         21.08430         7.75586         0.17387
C         22.05834         5.53813         0.95108
C         22.28472         8.53930         0.46802
C         21.10199        10.74999         0.25440
C         20.97374        12.15942         1.04656
C         22.28126         9.88141         0.65960
C         22.23156        12.97004         0.80736
C         21.06269        15.05479         0.11931
C         21.01473        16.54825         0.35797
C         22.27022        14.26222         0.44755
C         22.15536        17.33852         0.87901
C         20.89975        19.40288         0.45526
C         22.06812        18.71154         0.86778
O          5.21769        10.60737         0.41722
O         16.66935         5.77026         1.26961
O          3.60810        10.30892        -1.40146
O         17.87648         8.01295         1.46944
O          9.83320        18.02815         1.03869
O          3.62702         6.23310         1.45813
O         10.60479        11.32834         0.80041
O         13.86912         5.83822         1.00024
O         10.31689        13.68237        -2.20792
O          5.90542         2.33236        -1.57063
O         18.00952         3.68534        -1.64093
O          7.24747         4.82339         0.97207
O          2.16893        12.59462        -0.44380
O         21.27072        16.02232        -0.98468
O         12.48809         4.88168        -2.11726
O         17.55960        13.29715        -1.20812
O          5.27947         5.80298        -1.83647
O          4.34558        14.05261        -1.54705
O          6.92785        13.94069        -2.37512
O          9.42830         9.91652        -2.28671
O         13.37284         3.20568         1.05536
H         13.40822         4.10806         1.45873
O         21.83010         6.10180        -1.34978
H         21.78443         5.13647        -1.56563
O          8.60906        15.80603        -2.44885
H          8.22369        15.15159        -3.07606
O         13.55971         7.62654        -2.18205
H         13.28472         8.49569        -2.56585
O         12.38822        12.95463         1.40406
H         12.45260        12.03093         1.75758
O         14.94021        14.52530         1.63041
H         14.17120        14.08535         2.06139
O         16.17166        11.07096        -2.04387
H         16.48109        12.01291        -2.09096
O         13.56170        12.20840        -2.00155
H         14.45224        11.89282        -2.30366
O          7.41655        17.18817         1.75359
H          8.23510        17.68614         1.99693
O         14.96467         4.26151        -2.11777
H         14.65393         3.42081        -2.54381
O         19.61868         9.87320         1.85488
H         18.86256         9.26040         2.05645
O         20.92096        11.89757         2.47396
H         21.42663        11.07790         2.65944
O          9.67366         8.66449         1.15757
H          9.13183         7.94451         1.54722
O         17.35104        18.29675        -1.93815
H         17.40042        19.14346        -2.42913
O         18.92642        11.22431        -1.39418
H         18.13403        11.39930        -1.94456
O          4.27608        17.01091        -1.60545
H          4.14481        16.05946        -1.82207
O         20.74560         3.62732        -1.25651
H         20.17086         3.58895        -2.05348
O         15.65246        14.90674        -1.92777
H         16.36497        15.36635        -2.41982
O          3.50951        17.58421         2.84514
H          3.76342        16.75995         3.31212
O         12.34594         8.36055         1.21846
H         11.42988         8.54579         1.55704
O         13.51046        10.65203         1.33462
H         13.33817         9.71932         1.63436
O         18.16198        11.77797         2.09391
H         19.01273        11.62675         2.58011
O         19.59968         3.87225         2.20054
H         19.99784         3.63277         3.06256
O          8.65008        12.09393        -3.10011
H          9.11180        12.92226        -3.36895
O          5.44873        18.79922         1.44474
H          4.79686        18.47628         2.11545
O          5.87342        19.08635        -2.13853
H          5.38187        18.24482        -2.30387
O         19.59527        17.25779         2.07814
H         18.71905        17.67918         2.28346
O          6.91379         9.54352        -2.69113
H          7.77441         9.51942        -3.17163
O          2.58665         7.58159        -1.77343
H          3.17630         7.43296        -2.54163
O          6.75515        14.55062         1.23789
H          7.02037        15.37692         1.72121
O         21.37827        11.10641        -1.10672
H         21.51456        10.28731        -1.62540
O         10.64711         3.16944        -2.40477
H         11.00978         3.96723        -2.86135
O         19.79437        14.01224        -1.56948
H         20.23257        14.78897        -1.98375
O         17.01979        17.54872         1.63988
H         16.80372        16.68968         2.07049
O          5.94102         7.86654         1.07595
H          5.16132         7.38231         1.43399
O         13.52111         1.98119        -2.39566
H         12.60161         2.21487        -2.66715
O         10.13807         4.06370         1.13011
H          9.31127         4.31824         1.60123
O         18.37032        14.94149         1.74758
H         19.01284        15.58601         2.14927
O         12.36760         9.90962        -2.12205
H         12.59817        10.83091        -2.42106
O          5.44349        11.95850        -2.76732
H          5.33505        12.87315        -3.11051
H          0.49259         1.53934         1.81205
H          0.46825         4.00498         1.56517
H          2.53107         0.22686         1.29621
H          0.32839         6.00690         1.21380
H          0.52200         8.42983         1.20728
H          1.48336         9.93351         2.54385
H          1.41973        12.34034         2.77886
H          0.83052        14.46515         2.22882
H          0.91553        16.91132         2.44660
H          1.55248        18.84197         0.85469
H          4.86935         0.16190         0.73405
H          3.27222        20.08269        -0.43142
H          7.43397         0.14789         0.39253
H          6.07200        20.35225        -0.52489
H          9.88045         0.18109         0.17951
H          8.35109        20.43926        -0.80725
H         12.32402         0.16776        -0.13613
H         11.10797        20.29140        -1.10597
H         14.83820         0.11569        -0.51257
H         13.47567        20.42076        -0.28619
H         17.22327         0.16954         0.27660
H         15.92682        20.44567        -0.42173
H         19.75043         0.18440         0.63994
H         18.48338        20.45877        -0.15026
H         21.58554         1.57338         1.52504
H         22.55620         3.83800         2.10556
H         23.00218         6.03864         1.21922
H         23.22649         7.98862         0.61291
H         23.23890        10.37786         0.88521
H         23.18621        12.46516         1.02845
H         23.24328        14.76816         0.34404
H         23.09629        16.84290         1.15765
H         20.95279        20.48783         0.27968
H         22.95074        19.30650         1.14702
