         324
 CSIRO Nanostructure Databank - Neutral Graphene Oxide Data Set
C          1.52944         2.39658         2.59972
C          1.45134         3.75331         2.26366
C          2.74548         1.72668         2.58528
C          2.60494         4.48182         1.89890
C          1.34194         6.62926         1.57374
C          1.30174         7.97233         1.24045
C          2.54436         5.88494         1.52115
C          2.45137         8.65006         0.75261
C          1.26506        10.91316         0.72412
C          1.28417        12.27675         0.71522
C          2.46649        10.11088         0.62532
C          2.53366        13.02029         0.92289
C          1.46579        15.29471         0.92487
C          1.52902        16.67721         0.89215
C          2.62547        14.50217         0.74395
C          2.75396        17.33744         0.64133
C          2.84938        18.76930         0.67553
C          3.93817         2.41516         2.23482
C          3.85877         3.80452         1.89170
C          5.18732         1.74637         2.22044
C          5.06005         4.50568         1.54165
C          3.72676         6.54552         1.05926
C          3.64133         7.90420         0.59857
C          4.97392         5.85681         1.10102
C          4.79202         8.54028        -0.07033
C          3.67282        10.77344         0.41547
C          3.81366        12.18850         0.76139
C          4.82139        10.05843        -0.14727
C          5.10682        12.88908         0.45654
C          3.84972        15.14030         0.46783
C          3.91851        16.56084         0.38213
C          5.12203        14.38543         0.33562
C          5.15484        17.22594         0.06647
C          4.04405        19.39872         0.46660
C          5.22762        18.65177         0.13260
C          6.38248         2.43318         1.91390
C          6.30624         3.81668         1.58572
C          7.65846         1.78114         1.94672
C          7.56755         4.55783         1.44421
C          6.19497         6.49311         0.55659
C          6.10894         7.83328        -0.10523
C          7.51965         5.99624         1.04314
C          7.33849         8.62447        -0.31623
C          6.11999        10.76213        -0.29729
C          6.21898        12.11228        -0.13996
C          7.32598         9.97777        -0.53008
C          7.55732        12.82286        -0.24776
C          6.29111        15.02708        -0.33221
C          6.30272        16.49314        -0.36884
C          7.39236        14.28103        -0.66393
C          7.45240        17.18445        -0.76412
C          6.43829        19.31497        -0.13611
C          7.57013        18.60894        -0.61953
C          8.86802         2.43396         1.63682
C          8.84547         3.84233         1.29827
C         10.09881         1.71951         1.59577
C          9.98602         4.49896         0.83015
C          8.76718         6.64337         0.51581
C          8.65364         7.94222        -0.19506
C          9.98741         5.83818         0.30341
C          9.73275         8.36055        -1.13481
C          8.52542        10.66837        -0.99674
C          8.57310        12.02995        -1.06230
C          9.62014         9.82332        -1.54165
C          9.57853        12.69251        -1.99216
C          8.64792        14.96166        -1.06612
C          8.57970        16.43463        -1.34828
C          9.78133        14.17708        -1.65287
C          9.79166        17.16351        -1.83297
C          8.72957        19.30087        -1.03894
C          9.87154        18.68949        -1.79640
C         11.31553         2.35785         1.28475
C         11.27645         3.80851         1.00508
C         12.54016         1.68012         1.18484
C         12.49647         4.45725         0.42155
C         11.08397         6.41321        -0.39042
C         11.04242         7.65481        -1.10718
C         12.32146         5.61793        -0.50186
C         12.15501         8.22048        -1.83015
C         10.86408        10.42458        -2.01006
C         10.91577        11.91235        -2.15497
C         11.89130         9.56288        -2.37870
C         12.24203        12.67435        -1.96070
C         11.03264        14.91762        -2.10163
C         11.08913        16.39926        -1.86484
C         12.17635        14.11566        -1.59315
C         12.21028        16.98433        -1.08761
C         11.06234        19.17993        -1.02941
C         12.15304        18.35606        -0.66639
C         13.74237         2.31488         0.73158
C         13.70526         3.64373         0.27908
C         14.97513         1.57656         0.63765
C         14.91759         4.38561        -0.06581
C         13.55432         6.23740        -1.13782
C         13.47853         7.58391        -1.76483
C         14.86933         5.66194        -0.77581
C         14.77445         8.02049        -2.20175
C         13.75917        10.80311        -2.64287
C         13.56118        11.96433        -1.88329
C         14.97031        10.11208        -2.67732
C         14.77770        12.50921        -1.36119
C         12.97656        14.72366        -0.67636
C         13.22549        16.15015        -0.57408
C         14.82626        13.67409        -0.50661
C         14.41328        16.66972         0.03968
C         13.27672        18.86115         0.03959
C         14.43678        18.08253         0.27832
C         16.15806         2.15154         0.18808
C         16.23477         3.59883        -0.08713
C         17.38932         1.45587         0.14347
C         17.36847         4.18566        -0.79045
C         16.07826         6.29255        -1.06343
C         16.04873         7.60105        -1.68562
C         17.33832         5.55835        -1.02238
C         17.28362         8.38099        -1.74234
C         16.13868        10.58176        -2.07752
C         16.02724        11.91132        -1.60330
C         17.33548         9.79620        -1.86851
C         17.24662        12.68354        -1.40141
C         15.85798        14.55196        -0.38833
C         15.66771        15.88025         0.27833
C         17.17727        14.09953        -0.88789
C         16.97435        16.65782         0.51963
C         15.64598        18.75378         0.65721
C         16.89306        18.13092         0.63624
C         18.58913         2.00505        -0.34222
C         18.52998         3.29763        -1.21286
C         19.74685         1.26106        -0.02936
C         19.80840         4.13380        -1.27739
C         18.56096         6.29068        -1.27931
C         18.54558         7.70137        -1.44538
C         19.79366         5.58333        -1.24858
C         19.78231         8.40968        -1.33958
C         18.54782        10.55548        -1.59981
C         18.50373        11.93684        -1.40317
C         19.80987         9.86048        -1.40880
C         19.70402        12.76687        -1.33421
C         18.39178        14.59982        -0.12414
C         18.28475        16.08077         0.13500
C         19.67226        14.12615        -0.78394
C         19.41080        16.86901         0.05856
C         18.09709        18.87773         0.66461
C         19.34704        18.30198         0.36837
C         21.02217         1.50548        -0.58985
C         21.02412         3.51577        -1.48972
C         22.27464         1.28058        -0.06049
C         22.31170         4.11585        -1.30175
C         21.01321         6.29390        -1.28781
C         21.01668         7.70093        -1.20309
C         22.34507         5.61267        -1.53465
C         22.27827         8.41160        -0.97820
C         20.99122        10.55942        -1.19039
C         21.06031        12.01550        -1.30410
C         22.16598         9.85389        -0.56783
C         22.21531        12.77241        -0.79816
C         20.82997        14.89024        -0.76880
C         20.66489        16.31629        -0.43660
C         22.14285        14.21249        -0.80020
C         21.63178        17.25497        -0.73173
C         20.52529        19.08952         0.36899
C         21.74365        18.55631        -0.11677
C         23.46030         1.98011        -0.52338
C         23.46028         3.38783        -0.96267
C         24.66871         1.33327        -0.34331
C         24.73741         4.08513        -0.90319
C         23.45769         6.25826        -0.72127
C         23.48930         7.76534        -0.83309
C         24.76375         5.56627        -1.03585
C         24.73952         8.47651        -0.56687
C         23.46292        10.61865        -0.61924
C         23.39886        12.04158        -0.54102
C         24.68368         9.93237        -0.46528
C         24.59055        12.73479        -0.04753
C         23.35810        14.92310        -0.57470
C         23.51736        16.30631        -0.82323
C         24.53559        14.26548        -0.00441
C         24.47914        17.10374        -0.18850
C         23.00838        19.16801         0.06016
C         24.29215        18.51979         0.07195
C         25.92786         1.95956        -0.62015
C         25.94020         3.40875        -0.78584
C         27.09614         1.24432        -0.65501
C         27.21775         4.09531        -0.66615
C         26.02217         6.32880        -0.75679
C         25.96086         7.78704        -0.46154
C         27.22936         5.54687        -0.34644
C         27.22599         8.44717        -0.19880
C         25.90580        10.66819        -0.27117
C         25.89275        12.05363        -0.07376
C         27.19168         9.94421        -0.19270
C         27.06826        12.83016         0.24094
C         25.77929        15.03020         0.09995
C         25.70616        16.43174         0.17168
C         27.08833        14.31104        -0.09361
C         26.80742        17.20254         0.62959
C         25.38765        19.21720         0.61899
C         26.63467        18.58478         0.91792
C         28.37398         1.91775        -1.05161
C         28.39647         3.37864        -0.63361
C         29.57923         1.14054        -0.61158
C         29.67118         4.03897        -0.45003
C         28.53748         6.28116        -0.12145
C         28.45584         7.79362        -0.09466
C         29.77598         5.46405        -0.34668
C         29.58769         8.52347         0.58801
C         28.33243        10.73186         0.41094
C         28.23004        12.18660         0.63567
C         29.44420         9.98945         1.05518
C         29.37844        12.88491         1.15433
C         28.28054        15.10053         0.46486
C         28.11328        16.55394         0.83557
C         29.45109        14.35109         1.04301
C         29.07834        17.21881         1.73681
C         27.68133        19.26866         1.58471
C         28.84362        18.59211         2.05756
C         30.74002         1.77274        -0.38087
C         30.84314         3.22355        -0.45205
C         32.11644         3.80052        -0.50264
C         31.08190         5.98247        -0.48642
C         30.99730         8.16695         0.45190
C         32.22795         5.18178        -0.58924
C         32.01647         8.84193         1.09076
C         30.60270        10.76362         1.53362
C         30.46434        12.20049         1.71714
C         31.80465        10.10328         1.71114
C         31.37555        12.91864         2.57645
C         30.45827        15.10641         1.92279
C         30.20551        16.54387         2.24978
C         31.28080        14.26029         2.79709
C         31.10420        17.24922         3.07145
C         29.78568        19.27166         2.87386
C         30.89599        18.60263         3.36829
O         12.16684         4.66074         1.83335
O         30.71709        14.83449         0.50688
O          8.80172        16.70411        -2.79589
O          4.46858         9.23221        -1.31515
O         25.57503         6.05630        -2.14134
O         17.31287        13.90392        -2.30967
O         14.90329         8.87324        -3.31761
O         16.26896        15.94875         1.61686
O          7.59632         5.68786         2.45139
O         22.60800        16.92679        -1.67890
O         28.25881        10.47630        -1.04746
O         20.99304         2.15997        -1.84123
O         15.85174         4.39766         1.08125
O         11.28007        15.79327        -3.21734
O         20.53652        12.59486        -2.52899
O         31.36995         7.34177        -0.59647
O          5.55066        13.71831         1.59304
O         24.30727        13.45105         1.21121
O          6.13372         6.59667        -0.91622
O         28.71526        16.12095        -0.47865
O         12.69377         5.25007        -1.86507
O          3.28885        12.52720         2.07783
O         12.76026        10.11808        -3.33093
O         13.67098        13.91882         0.23005
O          9.74718        14.48238        -0.21165
O          9.19529         8.72453        -2.43271
O          9.08342         7.91861         1.21139
O         27.71022         5.78690         1.01242
O         29.13287         8.87877         1.94432
O         11.63268        12.45282        -3.29026
O         27.23016        14.31558        -1.55352
H         27.76902        15.11315        -1.77735
O         21.85295         9.79060         0.88203
H         21.04337         9.24437         0.98176
O         23.16715         5.96477         0.67478
H         23.76792         6.49577         1.23887
O          9.90331        19.17713        -3.16464
H          9.36245        18.55640        -3.70101
O         18.32558        13.93109         1.18080
H         17.65122        14.41897         1.71330
O         18.23653         2.82986        -2.56218
H         19.01084         2.29316        -2.84383
O         22.65989         5.84246        -2.93290
H         21.94534         5.45598        -3.48029
O          8.09084        12.84627         1.10929
H          7.39579        13.26162         1.67740
O          8.95608        12.65469        -3.30055
H          9.67358        12.74691        -3.96797
O         28.40303         1.91370        -2.52730
H         27.60853         2.40009        -2.83567
H          0.61208         1.85716         2.87402
H          0.46845         4.24261         2.27927
H          2.79611         0.66007         2.84624
H          0.41812         6.15196         1.92726
H          0.35734         8.51969         1.36255
H          0.29380        10.40317         0.65063
H          0.34312        12.82994         0.58386
H          0.50648        14.80616         1.14363
H          0.62508        17.27321         1.08220
H          1.94357        19.35202         0.89702
H          5.22778         0.67952         2.48509
H          4.11202        20.49507         0.51628
H          7.68787         0.71179         2.20370
H          6.48475        20.41037        -0.04728
H         10.09499         0.64017         1.80818
H          8.74266        20.39558        -0.92414
H         12.57738         0.60959         1.43509
H         11.09513        20.24600        -0.76025
H         14.97044         0.51233         0.91589
H         13.29076        19.92544         0.31919
H         17.42016         0.43908         0.56603
H         15.60686        19.84688         0.78101
H         19.66137         0.49988         0.76236
H         18.03789        19.96453         0.82758
H         22.38889         0.59640         0.79361
H         20.48968        20.11392         0.76796
H         24.67310         0.28353        -0.01481
H         22.99798        20.19302         0.46672
H         27.07936         0.15126        -0.52944
H         25.26412        20.27597         0.89201
H         29.50725         0.04404        -0.56841
H         27.55564        20.33345         1.82981
H         31.65291         1.21003        -0.13399
H         33.01048         3.16241        -0.51506
H         33.20593         5.66947        -0.68691
H         33.04744         8.49252         0.94661
H         32.67347        10.63083         2.12808
H         32.07158        12.32979         3.19097
H         31.86125        14.71945         3.60979
H         31.99610        16.74641         3.46873
H         29.62240        20.33165         3.11455
H         31.62215        19.13490         3.99811
