         762
 CSIRO Nanostructure Databank - Neutral Graphene Oxide Data Set
C         23.33761        26.87763        -3.12971
C         22.28037        26.68473        -2.30085
C         23.13654        28.25378        -0.63239
C         22.17563        27.37961        -1.04089
C         22.97975        29.04918         0.62133
C         21.66638        29.71189         0.76230
C         22.59189        31.32472         2.39380
C         21.51316        30.80086         1.52727
C         22.42176        32.71353         2.84721
C         21.82069        33.72779         2.16722
C         22.95417        35.72843         3.22990
C         21.91980        35.10900         2.55463
C         22.93990        37.19967         3.24419
C         21.67751        37.89610         3.04786
C         22.87242        39.92323         2.41633
C         21.65184        39.18118         2.59823
C         22.94183        41.05736         1.61262
C         21.78969        41.52346         0.88524
C         23.03066        43.42124        -0.04267
C         21.83296        42.63135         0.09361
C         23.04319        44.58160        -0.94472
C         21.91938        44.90077        -1.73598
C         23.13449        46.67612        -2.84971
C         21.97025        45.93249        -2.67086
C         26.00532        26.31747        -4.30129
C         25.90457        27.36503        -3.26215
C         24.48138        27.70727        -2.72488
C         25.63258        28.80986        -0.63963
C         24.38150        28.42181        -1.40469
C         25.53384        29.36705         0.74753
C         24.18568        29.63317         1.31914
C         25.31422        31.41748         2.87622
C         24.02079        30.75483         2.33360
C         25.37071        32.85671         3.32085
C         24.26758        33.61061         3.67783
C         25.39130        35.76696         3.62855
C         24.20831        35.05456         3.59540
C         25.36789        37.24364         3.63428
C         24.10129        37.93266         3.31390
C         25.35688        40.17203         2.97253
C         24.02155        39.46516         3.29085
C         25.35154        41.36327         2.07268
C         24.18861        41.79729         1.44530
C         25.38381        43.85540         0.61637
C         24.17286        43.00857         0.64098
C         25.40065        45.09366        -0.28592
C         24.21670        45.36074        -1.11609
C         25.50047        47.20324        -2.20489
C         24.27654        46.40841        -2.06985
C         25.53157        48.37079        -2.98633
C         28.36269        25.85985        -3.78947
C         27.11628        25.59901        -4.53418
C         28.30372        26.87488        -2.67649
C         27.03429        27.57461        -2.34976
C         28.06545        28.51843        -0.31593
C         26.94163        28.30116        -1.12924
C         27.91083        28.93866         1.13238
C         26.65759        29.74041         1.41821
C         27.94844        31.53338         2.67457
C         26.64407        30.78584         2.49426
C         27.95511        32.88439         3.19728
C         26.67263        33.51225         3.56106
C         27.93515        35.78269         3.55034
C         26.67165        35.06337         3.81341
C         27.91615        37.17904         3.35632
C         26.67523        37.97622         3.56748
C         27.93900        39.98102         2.63720
C         26.67694        39.44178         3.19688
C         27.94349        41.38932         2.19222
C         26.62477        42.09435         1.88301
C         27.88287        43.83429         0.57615
C         26.67039        43.25740         0.97415
C         27.90428        45.06766        -0.22991
C         26.69916        45.63905        -0.70025
C         27.90323        47.54999        -1.70962
C         26.70501        46.78642        -1.55876
C         27.87599        48.76506        -2.44827
C         26.68864        49.13912        -3.09822
C         30.65441        23.02434        -4.87765
C         29.50286        23.81818        -4.69829
C         30.66760        25.17483        -3.03490
C         29.49170        24.89095        -3.81856
C         30.61681        26.10174        -1.96251
C         29.27980        26.66665        -1.53040
C         30.57133        28.09684         0.17084
C         29.37329        27.93231        -0.70312
C         30.50083        28.98952         1.37074
C         29.17164        29.55332         1.75361
C         30.43441        31.49640         2.78887
C         29.14044        30.91802         2.33723
C         30.42569        32.87602         3.43583
C         29.14173        33.60592         3.39984
C         30.39547        35.78466         3.44332
C         29.15991        35.05442         3.48155
C         30.35130        37.18463         3.29485
C         29.12358        37.86427         3.11261
C         30.37582        39.85087         2.20385
C         29.10403        39.26187         2.69570
C         30.38960        41.24636         1.74252
C         29.16774        41.93144         1.57503
C         30.38612        43.69561         0.40770
C         29.11198        43.16994         0.90205
C         30.39357        45.00675        -0.33624
C         29.12566        45.70250        -0.57283
C         30.34771        47.69839        -1.37611
C         29.14339        47.00668        -1.18270
C         30.32326        49.09578        -1.82911
C         29.06402        49.65679        -2.44333
C         30.41226        51.39905        -3.63332
C         29.22860        50.80592        -3.37767
C         32.95865        21.09516        -4.67197
C         33.04367        22.49378        -4.51872
C         31.87810        23.38067        -4.31394
C         33.08761        24.93528        -2.75658
C         31.90198        24.51370        -3.40941
C         33.00480        25.63352        -1.45413
C         31.75511        26.34853        -1.12762
C         32.99193        27.61790         0.65871
C         31.74935        27.22268        -0.03791
C         33.00043        29.01580         1.44978
C         31.74659        29.74114         1.64450
C         32.97095        31.66834         2.48215
C         31.72993        30.96436         2.27731
C         33.01085        32.91776         3.30309
C         31.72035        33.62170         3.81283
C         32.86294        35.83934         3.65525
C         31.69933        35.11897         3.52160
C         32.83855        37.31664         3.83822
C         31.53647        38.07460         3.60270
C         33.00116        39.94545         2.42676
C         31.66811        39.19791         2.57154
C         32.85754        41.45749         2.24746
C         31.62665        41.98020         1.68031
C         32.65374        44.21974         1.43211
C         31.60248        43.25262         1.10795
C         32.71187        45.53218         0.69953
C         31.68216        45.77449        -0.37674
C         32.79791        48.05200        -0.67513
C         31.66250        47.11783        -1.00989
C         32.75638        49.41262        -1.27626
C         31.64037        49.69240        -2.22703
C         32.99126        51.64639        -3.18684
C         31.70891        50.87522        -3.12536
C         33.13923        52.67188        -4.13792
C         35.42699        20.85222        -4.60738
C         34.12163        20.32938        -4.77032
C         35.55746        22.26938        -4.37941
C         34.35520        23.00457        -4.50815
C         35.56867        24.74166        -2.52816
C         34.36553        24.66692        -3.27767
C         35.56169        25.94017        -1.62188
C         34.29617        26.09154        -0.81588
C         35.47018        27.92102         0.39183
C         34.28347        27.23837         0.10174
C         35.45865        29.19087         1.06121
C         34.24539        29.77808         1.48917
C         35.39567        31.94432         1.89798
C         34.16500        31.12200         1.99130
C         35.45534        33.32411         2.49223
C         34.27700        33.72820         3.34230
C         35.47465        35.98411         3.71296
C         34.19731        35.17501         3.77394
C         35.41088        37.47492         3.67003
C         34.09970        38.14086         3.86349
C         35.29308        40.33752         3.28162
C         33.97363        39.65614         3.59448
C         35.23590        41.72208         2.88114
C         33.96413        42.27694         2.45608
C         35.09690        44.61459         2.19526
C         33.86211        43.74065         2.19672
C         35.19178        45.85961         1.39766
C         33.96064        46.37277         0.74937
C         35.25573        48.40145         0.02668
C         34.15002        47.42449        -0.33110
C         35.20014        49.75220        -0.58012
C         34.00150        50.25208        -1.33412
C         35.40653        51.78127        -2.74657
C         34.13536        51.24728        -2.44384
C         35.56142        52.73697        -3.79594
C         34.38217        53.21480        -4.42229
C         37.60602        17.70448        -4.43769
C         36.49077        18.49601        -4.42926
C         37.85083        20.44816        -4.69218
C         36.57260        19.93774        -4.53872
C         38.04145        22.50466        -4.23726
C         36.74745        22.97508        -3.86539
C         37.95942        24.26583        -2.08442
C         36.71867        24.02165        -2.88483
C         37.99979        25.40105        -1.05274
C         36.78460        26.20224        -0.80728
C         37.99486        27.99197         0.32001
C         36.75603        27.32914        -0.01002
C         37.97265        29.30344         0.77604
C         36.70279        29.94443         1.14927
C         37.89552        32.06509         1.57564
C         36.65197        31.26890         1.54465
C         38.02949        33.42479         2.19909
C         36.75004        34.06183         2.69145
C         37.97648        36.14184         3.17723
C         36.72631        35.32126         3.20936
C         37.87408        37.60375         3.47318
C         36.54502        38.24730         3.63858
C         37.75273        40.51732         3.59909
C         36.49507        39.69045         3.47674
C         37.68844        41.87470         2.96857
C         36.42943        42.48119         2.78193
C         37.65401        44.64267         2.18662
C         36.40395        43.93503         2.51032
C         37.64094        46.00051         1.73963
C         36.38976        46.56150         1.25670
C         37.67573        48.61256         0.57209
C         36.41588        47.89110         0.61337
C         37.71838        49.94160        -0.09499
C         36.49955        50.46617        -0.78807
C         37.97000        51.74696        -2.49060
C         36.62625        51.24225        -2.07430
C         38.07131        52.73267        -3.60772
C         36.86652        53.17625        -4.24716
C         38.20463        54.41116        -5.90072
C         37.00202        54.02661        -5.40044
C         40.16453        16.13645        -4.59456
C         40.20938        17.50293        -4.29033
C         38.93872        18.25826        -4.14946
C         40.38169        20.45368        -4.20747
C         39.04383        19.78941        -4.19148
C         40.49337        21.98763        -3.87948
C         39.25529        22.76646        -3.60039
C         40.45310        24.30919        -2.10393
C         39.26174        23.76499        -2.57266
C         40.45493        25.50527        -1.31299
C         39.29382        26.03631        -0.77452
C         40.52134        28.17416        -0.09868
C         39.28163        27.33106        -0.03846
C         40.42382        29.65766         0.03180
C         39.12960        30.16833         0.56197
C         40.76400        32.59807         0.91641
C         38.91658        31.51448         0.67110
C         40.61644        33.66061         1.81798
C         39.26025        34.37987         1.91761
C         40.39394        35.67259         3.76105
C         39.27190        35.38456         3.06061
C         40.31485        37.89593         4.05158
C         39.07017        38.44482         3.71125
C         40.20249        40.45797         2.89806
C         39.03330        39.78960         3.30247
C         40.16749        41.89377         2.71901
C         38.89683        42.59102         2.79262
C         40.05209        44.80839         2.67340
C         38.85502        43.98713         2.46565
C         40.09935        46.17989         2.13622
C         38.86839        46.72507         1.62552
C         40.17718        48.66046         0.79215
C         38.87866        48.03301         1.02136
C         40.27350        49.78730        -0.05991
C         39.05828        50.51783        -0.48448
C         40.49692        51.87943        -2.14627
C         39.15051        51.54558        -1.57593
C         40.57137        52.62875        -3.45581
C         39.31720        53.07399        -4.11041
C         40.55000        53.48722        -6.24568
C         39.50379        54.03007        -5.26332
C         40.43760        53.58621        -7.60076
C         42.46627        15.89944        -3.95822
C         41.31289        15.34687        -4.50705
C         42.55004        17.27308        -3.67010
C         41.45664        18.14053        -3.99170
C         42.74982        20.30485        -3.77702
C         41.55086        19.60296        -3.92659
C         42.85106        21.62158        -3.18663
C         41.72442        22.42216        -3.19086
C         42.98781        24.23546        -1.94981
C         41.75466        23.86597        -2.74777
C         43.00089        25.51518        -1.37039
C         41.73152        26.27266        -1.31064
C         43.02240        28.23693        -0.27901
C         41.75137        27.66403        -0.78734
C         43.00885        29.51555         0.28704
C         41.78305        30.37690         0.22796
C         42.98291        32.07760         1.65538
C         41.84188        31.69297         0.91868
C         42.95265        33.26744         2.42613
C         41.77888        34.03635         2.52531
C         43.01238        35.53378         4.16281
C         41.78047        35.29745         3.32281
C         42.67026        37.55795         3.37964
C         41.49046        38.46211         3.55964
C         42.55836        39.99220         2.05798
C         41.41705        39.66966         2.82324
C         42.56170        42.12467         1.98225
C         41.34525        42.64280         2.54577
C         42.66227        44.78794         2.86346
C         41.35798        44.05927         2.89558
C         42.55482        46.31584         2.80967
C         41.33165        46.84609         2.03768
C         42.63993        48.72217         1.04184
C         41.38219        48.08706         1.32392
C         42.71007        49.67565         0.02999
C         41.52731        50.18873        -0.56513
C         42.80778        51.10613        -2.46453
C         41.64372        51.06712        -1.71686
C         42.84334        51.71978        -3.76741
C         41.78938        52.44798        -4.27179
C         42.94576        52.60398        -6.59371
C         41.81862        53.00479        -5.65188
C         42.63552        52.59032        -8.03064
C         41.46149        53.09501        -8.49009
C         43.97278        16.94156        -1.65488
C         43.64739        17.71044        -2.78582
C         44.99743        19.62041        -1.91324
C         44.23606        18.97920        -2.90877
C         45.28170        21.09482        -2.01776
C         44.15520        22.07961        -2.56814
C         45.33243        23.96113        -1.35149
C         44.16011        23.44126        -1.96144
C         45.37682        25.30748        -0.86488
C         44.18869        26.09410        -0.85632
C         45.41683        27.97292         0.19928
C         44.20802        27.43675        -0.31175
C         45.42574        29.27789         0.78648
C         44.21070        30.02933         0.86936
C         45.42725        31.88734         1.88720
C         44.21411        31.30998         1.49840
C         45.40738        33.34715         2.28904
C         44.21180        33.65041         3.19267
C         45.38249        36.02341         3.53452
C         44.20529        35.09326         3.67767
C         45.25281        37.48919         3.09817
C         43.94903        38.18341         2.85701
C         45.06461        40.25054         1.80550
C         43.86376        39.42461         2.23328
C         45.02667        41.85843         1.62205
C         43.83012        42.59780         2.21611
C         45.17613        44.74692         2.29458
C         43.93611        44.01766         2.65020
C         45.18623        46.14605         2.29433
C         43.91978        46.95123         2.42493
C         45.19898        48.78488         1.14749
C         43.90595        48.28846         1.68898
C         45.24816        49.63528         0.08062
C         44.00266        50.26575        -0.47402
C         45.29954        50.73938        -2.60184
C         43.98421        50.24650        -2.02188
C         45.31960        51.24275        -3.86486
C         44.03870        51.40937        -4.60281
C         45.41371        51.80390        -6.69901
C         44.07087        51.75972        -6.04820
C         44.83115        17.47270        -0.69755
C         47.39435        19.62603        -0.22683
C         45.31080        18.78754        -0.81331
C         47.52645        20.91384        -0.78726
C         46.39251        21.70928        -1.24421
C         47.72628        23.72165        -0.77773
C         46.49600        23.11838        -1.17000
C         47.79207        25.07822        -0.36541
C         46.59664        25.86836        -0.35354
C         47.85069        27.75419         0.64925
C         46.63022        27.19819         0.15613
C         47.89224        29.09137         1.19841
C         46.64612        29.83659         1.28578
C         47.85606        31.75938         2.32867
C         46.62695        31.15899         1.78467
C         47.93514        33.21495         2.51351
C         46.68379        33.86609         2.89592
C         47.92179        36.06231         2.95614
C         46.69538        35.31617         3.29675
C         47.80290        37.47931         2.66916
C         46.43012        38.00272         2.24448
C         47.61868        40.36599         2.16229
C         46.39073        39.54151         1.94988
C         47.55520        41.77411         2.15456
C         46.34183        42.54167         2.03168
C         47.63096        44.70478         1.98863
C         46.36161        43.95232         2.11037
C         47.64656        46.17630         2.09809
C         46.43819        46.84930         2.09769
C         47.71763        48.90612         1.36993
C         46.42139        48.35689         1.95522
C         47.73574        49.86527         0.19648
C         46.48693        50.07424        -0.54344
C         47.79032        50.92669        -2.47138
C         46.52426        50.59140        -1.82939
C         47.82729        51.41856        -3.77120
C         46.55643        51.86356        -4.47133
C         46.54857        51.74153        -5.98595
C         49.78630        19.30844        -0.18745
C         48.50262        18.81945         0.04848
C         49.98069        20.65399        -0.56611
C         48.84234        21.45400        -0.84247
C         50.26800        23.51735        -0.53310
C         48.95295        22.91563        -0.94445
C         50.19663        24.77490         0.25655
C         49.00198        25.64342         0.16052
C         50.26758        27.52092         1.25883
C         49.02967        26.95210         0.66106
C         50.38027        28.99227         1.44258
C         49.11743        29.67855         1.58132
C         50.41314        31.75799         2.39482
C         49.13133        30.98531         2.26152
C         50.38556        33.23665         2.30943
C         49.14217        33.91195         2.56286
C         50.36264        36.07267         2.50140
C         49.10196        35.35449         2.71348
C         50.26025        37.58059         2.34850
C         48.92718        38.22116         2.36186
C         50.10586        40.35011         2.18095
C         48.87789        39.66870         2.21601
C         50.13564        41.77902         2.47740
C         48.80347        42.51133         2.46917
C         50.17300        44.68613         2.55159
C         48.91848        43.95821         2.12747
C         50.19087        46.19296         2.53605
C         48.93858        46.87914         2.07028
C         50.23108        48.94802         1.45958
C         48.97105        48.18713         1.66604
C         50.22765        50.01457         0.38022
C         49.01622        50.17051        -0.46828
C         50.28334        51.29277        -2.30037
C         49.03049        50.73587        -1.72092
C         50.27414        51.57472        -3.74660
C         49.09575        51.66840        -4.41182
C         52.51574        20.48659        -0.44625
C         51.32161        21.25435        -0.47517
C         52.68628        23.23541         0.02790
C         51.43287        22.63915        -0.28088
C         52.75435        24.62866         0.37213
C         51.50138        25.30108         0.78348
C         52.85281        27.41435         1.29613
C         51.53110        26.70765         1.29261
C         52.90504        28.89327         1.54634
C         51.60449        29.60871         1.67101
C         52.91711        31.83522         1.81007
C         51.68403        31.02726         2.11243
C         52.76712        33.28482         1.53467
C         51.55891        33.95392         1.92793
C         52.59174        36.11471         1.34861
C         51.52281        35.37990         1.90639
C         52.50236        37.56911         1.23355
C         51.35392        38.24965         1.62781
C         52.43525        40.42352         1.40480
C         51.30249        39.69328         1.68694
C         52.62183        41.71121         2.14803
C         51.38582        42.55872         2.27615
C         52.72055        44.66115         2.21806
C         51.43871        43.91444         2.41147
C         52.78878        46.17351         2.25434
C         51.54721        46.99068         2.65975
C         52.80375        48.84021         1.26218
C         51.53469        48.33688         1.88756
C         52.79723        49.80445         0.30203
C         51.54813        50.45501        -0.18707
C         52.90095        51.31468        -2.16532
C         51.57692        51.16548        -1.51695
C         53.75542        21.08179        -0.27290
C         55.15710        23.14979         0.15008
C         53.88260        22.47387        -0.02505
C         55.20490        24.57881         0.23444
C         53.96839        25.28793         0.40939
C         55.22542        27.53049         0.37363
C         53.96773        26.76522         0.54134
C         55.25189        28.99390         0.67848
C         54.12750        29.64837         1.12803
C         55.16875        31.92014         0.60912
C         54.15097        31.12310         1.31937
C         55.02813        33.29594         0.45074
C         53.83130        34.00455         0.94288
C         54.69915        36.19342         0.03436
C         53.70287        35.41740         0.79715
C         54.71844        37.66891         0.16927
C         53.62434        38.31556         0.68557
C         54.83673        40.54221         0.57392
C         53.49872        39.82588         0.52134
C         54.94796        41.78992         1.13979
C         53.82605        42.47692         1.73268
C         55.26472        44.28811         2.33859
C         53.92834        43.79511         2.10850
C         55.27850        46.48251         2.76855
C         54.08734        46.95939         2.33796
C         55.38274        48.90999         1.37135
C         54.07055        48.44879         2.00992
C         55.36425        50.10482         0.50830
C         54.04721        50.49824        -0.13309
C         54.04164        51.10016        -1.48762
C         57.56207        23.08472         0.48209
C         56.36606        22.42438         0.26044
C         57.60437        24.49409         0.50829
C         56.45522        25.27456         0.31724
C         57.71604        27.60789        -0.11828
C         56.52125        26.77456         0.35486
C         57.47036        29.04973        -0.43051
C         56.38813        29.71691         0.14062
C         57.32740        31.93006        -0.79805
C         56.36628        31.19475         0.14243
C         57.10143        33.39305        -0.93864
C         56.06829        34.02406        -0.24993
C         57.17043        36.27755        -0.65847
C         55.94312        35.48920        -0.47380
C         57.14814        37.68204        -0.64982
C         55.87502        38.40984        -0.40831
C         57.29643        40.57015        -0.15286
C         55.95731        39.92444        -0.18579
C         57.29088        42.01501         0.14214
C         56.13185        42.63511         0.84341
C         57.74478        44.44983         1.97837
C         56.37055        43.81842         1.70272
C         57.73020        45.96088         1.61995
C         56.61387        47.15748         2.64024
C         57.84604        48.77580         1.09956
C         56.58921        48.31273         1.66231
C         57.80806        49.95444         0.26659
C         56.63925        50.55461        -0.06422
C         60.58813        25.16407        -0.78926
C         59.43280        25.73995        -0.25031
C         59.58903        27.59977        -1.78740
C         58.91295        26.96169        -0.72221
C         59.14988        28.91999        -2.24719
C         58.28253        29.71012        -1.43375
C         58.52874        31.54080        -3.01691
C         58.06623        31.08392        -1.76300
C         58.67866        33.90381        -2.80470
C         58.09845        34.22259        -1.57515
C         59.41777        36.36875        -1.63949
C         58.46743        35.50531        -0.85809
C         59.63927        37.76803        -1.15829
C         58.33950        38.43658        -0.75374
C         59.82389        40.22523         0.05719
C         58.45813        39.80499        -0.34793
C         60.26268        41.54513         0.03619
C         58.52940        42.80161         0.22594
C         60.15181        44.40687         1.04379
C         58.81335        43.82408         1.07849
C         60.25589        45.81652         1.15785
C         59.11681        46.63853         1.78575
C         60.30138        48.65774         0.89956
C         59.06117        48.06575         1.24275
C         61.24232        25.80500        -1.84270
C         60.74366        27.00575        -2.33905
C         59.60438        29.42832        -3.47230
C         59.24775        30.70888        -3.88311
C         59.60393        34.73935        -3.44118
C         59.94200        35.97567        -2.84968
C         60.55269        37.90883         0.05318
C         60.67216        39.15059         0.57258
C         61.34786        42.20305         0.70109
C         61.31385        43.56243         0.97098
C         61.42607        46.50032         0.81562
C         61.46493        47.90527         0.77059
O         46.13917        19.19978         0.22838
O         55.38438        45.22079         3.36585
O         31.97431        49.47813        -3.62816
O         50.88075        49.37597         2.69733
O         25.16876        45.20361         1.16268
O         58.22446        32.79843        -3.53806
O         55.53654        39.35270        -1.48538
O         50.64155        24.46425         1.62310
O         25.12177        28.51368        -3.73639
O         40.63380        21.45103        -5.22749
O         40.78455        53.32250        -2.16293
O         49.97312        45.43904         3.77752
O         43.71702        50.39569        -5.64485
O         52.61767        45.51151         0.96536
O         51.24163        31.23401         3.49827
O         49.87326        23.53678        -1.93383
O         56.27852        42.81972        -0.61704
O         42.94757        53.91836        -5.93821
O         24.91274        29.78162        -1.49394
O         59.48415        42.43584        -0.74006
O         42.43904        41.01306         1.12227
O         46.75850        34.24542         4.31327
O         38.41296        32.25596         2.98528
O         34.96686        35.43738         4.98403
O         53.21730        27.91094         2.61211
O         38.87383        19.08381        -2.92521
O         40.56568        44.51476         4.02306
O         54.01427        31.53361         2.73558
O         57.48034        27.31608         1.29834
O         41.07506        30.35503        -1.05574
O         57.21284        47.37038         3.79752
O         37.80600        23.99991        -0.64208
O         57.66534        31.70723         0.61178
O         38.03922        21.66017        -5.36469
O         35.14288        33.18011         1.06882
O         42.95688        36.87104         4.60040
O         32.75484        44.38254         2.89415
O         28.87942        27.24294        -3.96130
O         32.82940        46.65453         1.62837
O         33.45270        37.72502         5.11050
O         35.66065        44.70155         3.53855
O         39.06975        51.96687        -0.19243
O         29.46629        49.99913        -1.06392
O         26.05143        37.74913         4.86782
O         33.98876        32.77606         4.39845
O         43.63588        48.99458        -2.52796
O         40.23864        27.40468         1.10506
O         47.76780        50.34681         1.59680
O         37.46795        50.45549        -3.01430
O         30.49690        43.73035        -1.07681
O         43.47838        44.34357         4.01423
O         36.90720        51.03020         0.48475
O         45.54381        37.12376         4.47827
O         48.35070        31.00188         3.50563
O         34.48046        24.39750        -4.64691
O         34.27556        50.75766         0.00758
O         26.12399        40.33284         4.21154
O         54.58132        51.28130         0.98126
O         29.84897        28.54041         2.60090
O         37.91664        37.10945         2.03545
O         45.76575        39.73793         0.62110
O         54.82104        35.79385        -1.38452
O         32.97201        27.71154         2.10249
O         50.85965        51.24595         0.83176
O         49.42751        42.14380         3.72358
O         23.09903        30.39794         3.39218
O         45.30965        21.70019        -3.35300
O         42.15071        36.49400         2.41611
O         23.07505        32.97741         4.04703
O         33.63538        24.89096        -0.34276
O         50.70688        36.97932         3.60925
O         39.73503        32.40771        -0.01248
O         54.31553        27.34037        -0.78430
O         32.32740        49.17773         0.09908
O         50.83443        52.41925        -1.50940
O         26.72905        34.11239         4.90020
O         25.99819        30.46955         3.76426
O         48.44572        44.25890         0.79467
O         41.66229        27.44473        -2.22472
O         27.35819        42.33695         3.13723
O         30.38279        28.92273        -1.07588
O         23.55469        28.38472         1.79015
O         43.95570        19.66579        -4.09272
O         58.84363        25.06116         0.82645
O         32.14419        45.93223        -1.76674
O         40.33217        36.67467         4.74786
O         30.39250        31.65937         4.25048
O         50.73987        26.85391         2.49157
O         31.09009        38.88660         1.27644
O         43.97721        48.21496         3.13889
O         46.24562        37.31639         0.97524
H         45.88467        37.97364         0.33131
O         35.48404        27.08971        -2.55518
H         36.24280        27.03948        -3.17503
O         52.99391        40.02358        -0.84064
H         53.72763        39.76286        -1.45420
O         33.63973        39.42377         1.23804
H         32.92916        39.29554         0.56732
O         28.67104        25.67240        -0.64646
H         28.23914        26.13410         0.10946
O         52.95881        41.27792         3.52151
H         52.13843        40.94222         3.94491
O         42.26950        46.72133         4.16316
H         42.83265        46.18233         4.76152
O         46.34721        48.92051         3.28158
H         46.58262        49.87163         3.20407
O         44.92134        42.08126         0.20023
H         45.47634        41.40022        -0.24602
O         27.67164        27.64458         1.78109
H         28.30898        27.56701         2.53359
O         37.87057        40.78508         5.04971
H         37.10914        41.34597         5.31457
O         39.03568        35.04214         0.66835
H         38.64397        35.93080         0.83501
O         59.54019        46.66718         3.15118
H         58.82418        47.11403         3.68901
O         51.72992        47.29441         4.04074
H         51.25606        48.13472         4.23295
O         34.64620        46.77272        -1.53267
H         33.89201        46.26974        -1.93748
O         40.07662        55.25994        -4.72066
H         40.83332        55.02032        -4.14314
O         31.75669        33.60063         5.25227
H         31.60505        32.67228         5.53893
O         31.18838        38.75862         4.83928
H         31.20166        38.10039         5.56793
O         44.28939        32.79876         4.35618
H         45.09612        33.06038         4.85722
O         45.27096        34.11793         1.06264
H         44.44227        33.84573         0.61287
O         41.84026        24.63596        -3.99102
H         42.66016        24.37083        -4.45896
O         59.07795        35.18087         0.43003
H         58.59370        34.41882         0.81541
O         57.29164        46.11293         0.29827
H         56.72848        45.35035         0.03892
O         58.11128        44.25939         3.34133
H         57.57110        44.86733         3.89412
O         33.48756        40.30914         4.77359
H         32.80073        39.72791         5.18616
O         44.05074        51.66730        -0.10259
H         44.08511        51.73238         0.87464
O         60.24954        38.51331        -2.23847
H         60.29808        39.45411        -1.96423
O         46.47659        53.30504        -4.20348
H         45.65022        53.64588        -4.60815
O         53.97619        49.15172         3.27839
H         53.91176        50.11223         3.08371
O         23.65071        39.85916         4.63718
H         24.47926        39.83445         5.17174
H         23.34367        26.41371        -4.12474
H         21.44697        26.04116        -2.61346
H         21.27302        27.22831        -0.43305
H         20.83675        29.35522         0.13496
H         20.54452        31.32073         1.56434
H         21.22068        33.49616         1.27549
H         21.14300        35.75811         2.12385
H         20.73351        37.36235         3.22006
H         20.68425        39.64367         2.35860
H         20.84277        40.97516         0.97129
H         20.91618        42.93454        -0.42692
H         20.98439        44.33542        -1.63868
H         23.14689        47.47205        -3.60551
H         21.08334        46.15629        -3.27933
H         25.12250        26.15450        -4.93441
H         24.62412        48.72051        -3.49560
H         27.10722        24.83076        -5.32020
H         26.65454        50.06645        -3.68604
H         30.59478        22.14875        -5.53885
H         28.60532        23.56696        -5.27927
H         30.42985        52.28228        -4.28904
H         28.32128        51.22520        -3.83840
H         31.97997        20.59698        -4.71340
H         32.26436        53.02846        -4.69817
H         34.00741        19.24760        -4.92294
H         34.43733        54.00033        -5.18579
H         37.48932        16.61718        -4.54273
H         35.50365        18.01661        -4.49243
H         38.23671        55.09205        -6.76320
H         36.09782        54.37772        -5.91540
H         39.21222        15.67032        -4.88002
H         39.51688        53.98210        -8.05238
H         43.33155        15.25635        -3.74542
H         41.27376        14.28107        -4.76821
H         43.34859        52.11543        -8.71999
H         41.24744        53.08883        -9.56820
H         43.52969        15.94677        -1.51274
H         45.45201        51.80839        -7.80004
H         45.10728        16.89039         0.19024
H         47.50777        51.73680        -6.52473
H         50.65183        18.67234         0.04080
H         48.35518        17.81993         0.47675
H         51.21533        51.83067        -4.25207
H         49.10890        51.97571        -5.46637
H         52.46933        19.40204        -0.61765
H         52.94098        51.75766        -3.17062
H         54.65271        20.44988        -0.32462
H         55.00566        51.33239        -1.96249
H         58.49153        22.52143         0.63560
H         56.35719        21.32707         0.22254
H         58.74089        50.34155        -0.16487
H         56.64014        51.45456        -0.69437
H         60.97039        24.22324        -0.37366
H         60.36466        49.74116         0.72361
H         62.15440        25.36949        -2.27249
H         61.28832        27.51076        -3.14679
H         60.21566        28.80711        -4.13911
H         59.56350        31.09486        -4.86027
H         59.99589        34.46687        -4.42894
H         60.61178        36.66082        -3.38662
H         61.15384        37.06241         0.41135
H         61.42041        39.38305         1.34529
H         62.24425        41.62850         0.97910
H         62.25500        44.01274         1.32499
H         62.30697        45.93800         0.47092
H         62.40672        48.40810         0.51144
