         277
 CSIRO Nanostructure Databank - Neutral Graphene Oxide Data Set
C        -10.89313         0.92574        -1.23113
C         -9.82067         1.66449        -0.54919
C         -8.67285         0.90176        -0.04531
C         -7.56563         1.50758         0.48169
C         -6.30479         0.73830         0.71790
C         -5.00361         1.49107         0.91049
C         -3.80454         0.83378         0.21067
C         -2.48149         1.53134         0.41205
C         -1.30660         0.84085         0.29954
C         -0.05659         1.50594        -0.16246
C          1.21222         0.71385        -0.16883
C          2.54155         1.41981        -0.40911
C          3.74004         0.78151         0.28337
C          5.00516         1.38803        -0.24103
C          6.27751         0.62500        -0.18097
C          7.54479         1.36827        -0.50094
C          8.82211         0.67146        -0.40025
C          9.98854         1.36996        -0.79245
C         11.11449         0.57215        -1.25083
C         -9.81385         3.02337        -0.50467
C         -8.79057         3.82299         0.26483
C         -7.56840         2.98780         0.72336
C         -6.27612         3.72641         0.97405
C         -4.93198         3.01557         1.23017
C         -3.75492         3.78083         0.62851
C         -2.52801         3.00336         0.25905
C         -1.21080         3.70555         0.28075
C         -0.01251         3.02122        -0.34882
C          1.26995         3.65296         0.18391
C          2.52754         2.87011         0.08579
C          3.80240         3.64534        -0.06071
C          5.05614         2.89119        -0.32044
C          6.34867         3.56141         0.12282
C          7.55195         2.88165        -0.50326
C          8.85184         3.59083        -0.56558
C          9.98901         2.79639        -0.85157
C         -8.36869         5.08069        -0.48710
C         -7.25731         5.78752        -0.19777
C         -6.21917         5.22806         0.72156
C         -4.94342         6.01248         0.90503
C         -3.59364         5.27299         1.05987
C         -2.49778         5.94071         0.17498
C         -1.17644         5.18826         0.29298
C          0.10597         5.86924        -0.09256
C          1.37896         5.13858         0.16689
C          2.56788         5.78854         0.32286
C          3.87081         5.02477         0.58930
C          5.13567         5.73817         0.12255
C          6.27993         5.04711        -0.14635
C          7.48757         5.73061        -0.64959
C          8.75841         5.00636        -0.68561
C         -6.91081         7.07241        -0.94777
C         -6.22607         8.07454         0.01096
C         -4.90787         7.47877         0.50017
C         -3.61775         8.19220         0.27362
C         -2.33838         7.43767         0.33337
C         -1.16703         8.08718         0.09228
C          0.11207         7.35027        -0.07561
C          1.32890         8.10138         0.42037
C          2.61759         7.27356         0.46903
C          3.92780         7.98707         0.34096
C          5.23925         7.25182         0.09345
C          5.95423         7.62796        -1.22328
C          7.34208         6.99311        -1.17496
C         -6.04707         9.47188        -0.55361
C         -4.87751        10.10211        -0.74351
C         -3.55784         9.38222        -0.66708
C         -2.31748        10.20759        -0.41354
C         -1.10004         9.53867        -0.18321
C          0.15121        10.16282        -0.35812
C          1.46210         9.40201        -0.43846
C          2.66032        10.18728        -0.00612
C          4.00373         9.52037         0.19295
C          5.01856         9.92866        -0.87089
C          5.92721         9.12157        -1.43247
C        -10.98381        -0.42187        -1.25810
C         -9.98981        -1.25381        -0.47619
C         -8.66796        -0.52176        -0.49035
C         -7.40770        -1.28132        -0.50128
C         -6.28335        -0.79245         0.38456
C         -4.95524        -1.35178        -0.22608
C         -3.75224        -0.68973         0.45920
C         -2.43311        -1.35793         0.12079
C         -1.27275        -0.62199         0.28899
C         -0.00564        -1.31127         0.43721
C          1.19741        -0.65979         0.38876
C          2.49875        -1.42867         0.33869
C          3.73650        -0.62888         0.73903
C          5.04166        -1.39649         0.81841
C          6.34990        -0.67761         0.55393
C          7.63917        -1.44165         0.50885
C          8.87407        -0.72030         0.01934
C         10.08036        -1.55155        -0.50355
C         11.08239        -0.79161        -1.27181
C         -9.88131        -2.73169        -0.82843
C         -8.73334        -3.45264        -0.83781
C         -7.41995        -2.76168        -0.79905
C         -6.14100        -3.53558        -0.73560
C         -4.89372        -2.90183        -0.12144
C         -3.59145        -3.43784        -0.77924
C         -2.40494        -2.80108        -0.05669
C         -1.28124        -3.51364         0.31222
C         -0.09143        -2.75557         0.76726
C          1.16170        -3.50409         1.06171
C          2.50389        -2.77049         1.11257
C          3.67269        -3.55403         0.47722
C          5.01168        -2.88574         0.65026
C          6.24081        -3.57157         0.12195
C          7.62862        -3.01002         0.58767
C          8.72279        -3.66817        -0.26672
C          9.82777        -2.99335        -0.70851
C         -8.71445        -4.96408        -1.06818
C         -7.42372        -5.71565        -0.75784
C         -6.14265        -5.02084        -0.72370
C         -4.93810        -5.67986        -0.66212
C         -3.54681        -5.01965        -0.82961
C         -2.56941        -5.65252         0.19335
C         -1.27502        -4.96076         0.45175
C         -0.16290        -5.68148         0.83487
C          1.15310        -5.00159         1.00588
C          2.40421        -5.75361         0.66099
C          3.60833        -5.00696         0.15544
C          4.83434        -5.80206        -0.32158
C          6.14969        -5.00735        -0.29616
C          7.41293        -5.78616        -0.38889
C          8.59767        -5.11689        -0.44852
C         -7.46864        -7.07786        -0.62684
C         -6.24638        -7.89450        -0.73084
C         -4.91872        -7.14789        -0.78403
C         -3.66009        -7.88382        -0.42087
C         -2.64605        -7.12972         0.39706
C         -1.52905        -7.90879         1.13278
C         -0.18119        -7.15584         1.08716
C          1.11509        -7.91774         0.91304
C          2.31264        -7.21888         0.27162
C          3.64110        -7.89092         0.63491
C          4.92407        -7.16798         0.34707
C          6.18545        -8.02458         0.08631
C          7.29353        -7.26780        -0.69891
C         -6.19717        -9.32227        -0.33805
C         -5.03991       -10.01335        -0.23132
C         -3.70403        -9.37638        -0.29232
C         -2.50517       -10.05144         0.27660
C         -1.42233        -9.37137         0.70772
C         -0.16806       -10.13116         1.11227
C          1.12886        -9.40099         0.79143
C          2.29807       -10.05868         0.63427
C          3.67992        -9.42450         0.68248
C          4.61717        -9.92118        -0.40417
C          5.76190        -9.27949        -0.67294
O         -3.50947        -2.99815        -2.13325
H         -3.26515        -3.81854        -2.65278
O        -10.41425        -1.22114         0.92038
H        -11.31874        -1.59311         0.97515
O          0.98983         8.50154         1.75412
H          1.80843         8.45735         2.30029
O          3.31184        -4.00178        -0.86440
O         -9.48715         4.28372         1.44967
H         -8.80407         4.37009         2.15744
O          7.34051         2.15349        -1.73385
O          0.29281        -3.06189         2.15875
O         -5.53842        -7.64303        -1.99807
O         -6.60785        -3.01824        -2.02232
O         -4.68845         3.11110         2.64964
H         -5.44940         2.66456         3.09048
O          1.85705         3.02122         1.36304
O         -3.22402        -8.70895        -1.53253
O          6.11882         7.63964         1.17985
H          5.87183         8.55676         1.45411
O          4.36325         3.56982        -1.40707
O          5.44379         0.58662        -1.38574
O         -5.66169         0.86798         2.03807
O          3.41006         7.63277         1.67721
O          0.15435         6.63022        -1.34889
O         -7.82659        -0.56589        -1.70222
O         10.01085        -1.06681         0.86262
O          5.26392         7.05228        -2.35700
H          5.24357         6.07530        -2.25586
O         -4.06213         1.13101        -1.17920
H         -3.51051         0.54926        -1.74428
O         -6.04563         6.77530        -2.04911
H         -5.19848         6.39599        -1.72599
O         -3.08524        -5.41635        -2.08202
O         -4.31460         8.34617         1.53896
O          0.68081        -7.50111         2.22788
O          2.68082        -1.69035        -1.07654
H          2.68612        -0.83353        -1.56195
O         -1.91656        -7.99469         2.52042
H         -2.26823        -7.11318         2.78065
O         -0.05604         3.32494        -1.76055
H         -0.10756         2.47734        -2.25833
O          4.38818        -7.22565         1.69673
O          6.13665        -3.89131        -1.28851
O         -5.90650         5.88941         1.99561
O          4.57628        10.00384         1.44258
H          4.00439         9.66702         2.16766
O         -0.95013         4.42151         1.51821
O          0.38168         0.81940        -1.40111
O         -3.29359        -6.18641         1.34866
O          7.21409        -0.72092         1.71534
O          7.92169        -3.45986         1.85440
O         -3.47782         3.50154        -0.75444
O          3.59282         0.47476         1.68714
O         -3.83220        -0.87816         1.88972
H         -3.97412        -1.84246         2.05314
O          5.17516        -2.29299         1.95499
O         -3.17659         5.35634         2.41397
H         -3.81115         4.82703         2.95284
O         -7.18502         3.39136         2.08124
O          4.27708        -9.81454         1.94792
H          3.82078        -9.31465         2.65874
O          2.07628        -5.50010         2.04705
O          9.84472         5.74975        -0.93594
H         10.65283         5.19875        -0.95874
O         -3.33098         8.78113        -1.99264
H         -3.44582         9.48244        -2.66808
O          4.57576        -6.08915        -1.73231
H          4.47634        -5.20499        -2.16296
O         -9.78244        -5.60497        -0.37436
H        -10.63153        -5.24135        -0.69496
O         -4.83246        -3.29970         1.26801
H         -4.72306        -4.27559         1.31994
O          2.82598         1.35861        -1.81267
H          1.97247         1.44656        -2.29643
O          6.47712         3.36882         1.55037
H          5.72147         3.83009         1.99550
O         -4.93070        -1.01809        -1.61110
H         -5.51452        -1.64695        -2.10795
O          4.01877         4.81917         2.01600
H          3.93001         5.70284         2.44267
O          2.76360        -2.46110         2.47583
H          2.44087        -3.19482         3.03998
O         -6.56635        -1.45892         1.62774
H         -6.02200        -1.01470         2.32039
O         -0.15764       -11.44295         0.55980
H         -0.11742       -11.36812        -0.41559
O          6.74538        -8.41880         1.34360
H          6.03114        -8.88953         1.84031
O          1.65309         8.94989        -1.81180
H          1.83675         9.73124        -2.37312
O         -7.10797         8.21005         1.14351
H         -6.55346         8.40665         1.92929
O         -2.97247         5.85950        -1.19597
H         -2.27283         6.21439        -1.78824
O          2.11604        -7.32562        -1.15236
H          2.89925        -6.92498        -1.60859
O          7.03969        -7.37813        -2.10900
H          6.18998        -6.91190        -2.30023
H         11.86707        -1.34844        -1.80507
H         11.94570         1.10169        -1.74016
H         10.94432         3.29135        -1.09688
H          8.19607         7.49415        -1.65653
H          6.64023         9.53819        -2.16216
H          5.03773        11.00308        -1.10972
H          2.49682        11.10435         0.58331
H          0.15359        11.20299        -0.72633
H         -2.31593        11.28449        -0.64841
H         -4.87058        11.14803        -1.09203
H         -6.98267        10.03577        -0.69607
H         -7.84258         7.51915        -1.37045
H         -9.08965         5.49490        -1.21073
H        -10.65576         3.58827        -0.93454
H        -11.65563         1.53140        -1.74597
H        -11.81884        -0.91233        -1.78228
H        -10.84639        -3.26557        -0.89620
H         -8.87686        -5.10437        -2.18371
H         -8.44300        -7.58350        -0.54974
H         -7.15466        -9.83970        -0.17148
H         -5.07289       -11.07603         0.05501
H         -2.42432       -11.14238         0.13428
H         -0.19750       -10.24683         2.23105
H          2.27777       -11.16091         0.62590
H          4.35743       -10.84866        -0.93712
H          6.45079        -9.67309        -1.43549
H          8.26854        -7.77362        -0.49992
H          9.52285        -5.68174        -0.64604
H         10.56609        -3.53827        -1.31888
