         317
 CSIRO Nanostructure Databank - Neutral Graphene Oxide Data Set
C         30.55516        31.88338         1.70726
C         30.49129        33.09493         1.33007
C         30.40552        36.07042         0.53700
C         30.36237        37.30146         0.65119
C         30.56708        40.53594         0.90893
C         30.33229        41.79972         0.79797
C         32.89626        28.99189         1.45587
C         31.87950        29.65592         1.80995
C         32.99221        31.84839         1.66481
C         31.63513        31.02833         1.84586
C         32.80578        33.16465         0.93104
C         31.59947        33.82516         0.78350
C         32.78854        36.03358         0.49536
C         31.53878        35.18164         0.13281
C         32.76043        37.38050         0.65333
C         31.51023        38.15802         1.10468
C         32.75216        40.22970        -0.03728
C         31.54207        39.59413         0.71208
C         32.72563        41.78255         0.15675
C         31.24802        42.35677        -0.29539
C         32.53596        44.22360        -0.91685
C         31.48101        43.85139        -0.37741
C         34.98691        27.87385        -1.00862
C         35.13860        28.82471         0.14523
C         33.85676        29.61905         0.43202
C         35.30892        31.66068         0.83191
C         34.10162        31.03417         0.98978
C         35.34469        33.11431         0.71359
C         34.04348        33.81336         0.38045
C         35.30583        35.97142         0.41789
C         34.06875        35.27589         0.85611
C         35.23466        37.42781         0.12046
C         34.06068        38.13401         0.83956
C         35.26016        40.29043         0.28064
C         34.04187        39.60248         0.42522
C         35.30372        41.80925         0.10526
C         33.98251        42.44602        -0.45272
C         34.71362        44.34495        -2.11349
C         33.87431        43.69886        -1.04216
C         35.32005        45.68804        -1.93224
C         37.15972        28.04855        -1.89446
C         35.71663        27.78453        -2.01220
C         37.49907        29.07366        -1.03738
C         36.28198        29.80522        -0.45557
C         37.82785        31.64629         0.25089
C         36.59112        30.83536         0.63273
C         37.79667        33.03386         0.92262
C         36.52470        33.78147         0.55827
C         37.83222        35.97338         0.26787
C         36.51980        35.19744        -0.01243
C         37.76189        37.38905         0.77829
C         36.48276        38.14125         0.64052
C         37.80278        40.15622         0.02306
C         36.48910        39.59427         0.40570
C         37.84923        41.51835        -0.56730
C         36.57110        42.31147        -0.57310
C         37.91073        44.21859        -1.43282
C         36.82624        43.66571        -0.52291
C         37.84903        45.74886        -1.42952
C         36.48123        46.06513        -1.72778
C         40.14849        25.04600        -0.64371
C         38.97522        25.45227        -1.13356
C         40.21299        27.54116        -1.72226
C         38.98996        26.66703        -1.74631
C         40.14625        28.95375        -1.20941
C         38.89059        29.48775        -0.46827
C         40.23830        31.84230        -0.41882
C         38.93310        31.03675        -0.24400
C         40.28822        32.91566         0.73723
C         39.06116        33.75570         0.62332
C         40.35867        35.85564         1.10315
C         39.10880        35.21245         0.47047
C         40.34950        37.39992         1.13156
C         39.05779        38.14773         0.98779
C         40.34925        40.28316         0.28089
C         39.03500        39.68060         0.80150
C         40.38023        41.61204        -0.03419
C         39.06384        42.36397        -0.13000
C         40.32158        44.53072        -0.44545
C         39.28023        43.57874        -1.06654
C         40.37832        45.89677        -1.16744
C         38.93826        46.52058        -1.18525
C         39.96919        48.59989        -0.46719
C         39.05814        47.92584        -0.98381
C         42.76791        24.82665        -0.74913
C         41.43300        25.19194        -0.82714
C         42.77962        27.47792        -1.29260
C         41.54894        26.83182        -1.83220
C         42.72908        28.71106        -0.71170
C         41.49766        29.57129        -0.86979
C         42.80899        31.53825         0.17742
C         41.53716        30.99970        -0.42382
C         42.85940        32.97702         0.53524
C         41.59783        33.73585         0.73943
C         42.85214        35.94974         0.62243
C         41.55424        35.23180         0.37395
C         42.90209        37.36027         0.70907
C         41.67621        38.19810         1.07587
C         42.86393        40.28210         0.23736
C         41.60001        39.43557         0.13398
C         42.88945        41.63350        -0.00730
C         41.63589        42.38182        -0.22169
C         42.91063        44.54833        -0.71885
C         41.64142        43.74461        -0.44292
C         42.71417        45.95197         0.04120
C         41.45832        46.72353        -0.45063
C         42.29775        48.66642         0.71863
C         41.24472        48.04674        -0.06806
C         43.83073        25.22542        -1.28025
C         45.25247        27.18273        -0.67686
C         44.11401        26.69474        -1.55955
C         45.25382        28.79191        -0.65609
C         43.95376        29.30804         0.01604
C         45.30782        31.58356         0.00629
C         43.97074        30.83454         0.11282
C         45.31635        33.00562         0.56623
C         44.15255        33.69754         0.49978
C         45.27603        35.92061         0.91181
C         44.10600        35.18304         0.23566
C         45.39353        37.33407         0.30993
C         44.09816        38.08332         0.54585
C         45.38292        40.23371         0.11508
C         44.13344        39.59356         0.70456
C         45.42035        41.71639        -0.01384
C         44.16164        42.38246        -0.03904
C         45.39965        44.39230        -0.49319
C         44.16128        43.76336        -0.33198
C         45.21947        46.65303        -0.20102
C         43.94830        46.94381         0.18871
C         43.42524        48.12724         0.76635
C         47.67659        27.58141        -1.28959
C         46.62705        26.94358        -1.20450
C         47.83414        29.03288        -0.91125
C         46.57485        29.30001         0.02058
C         47.83590        31.48009         0.65688
C         46.52993        30.77459         0.41483
C         47.85734        33.00986         0.39341
C         46.61522        33.63619         1.08748
C         47.93341        35.91576         0.97016
C         46.62511        35.17686         1.03091
C         47.94739        37.37430         0.48143
C         46.62880        38.10035         0.86804
C         47.86996        40.39094         0.62510
C         46.66923        39.50997         0.28428
C         47.96938        41.57124        -0.39082
C         46.66712        42.39488        -0.10132
C         47.75588        44.60757         0.52639
C         46.64789        43.81624        -0.12699
C         47.50027        46.07009         0.46909
C         46.51922        46.82359         0.38794
C         50.37987        28.93828        -0.43313
C         49.09290        29.40418        -0.19987
C         50.35332        31.54493         0.24603
C         49.15854        30.66791         0.68313
C         50.42429        32.90023         0.96733
C         49.16284        33.68920         0.73360
C         50.35653        35.84741         0.13488
C         49.27881        35.16890         1.02694
C         50.46790        37.47102         0.32066
C         49.20435        38.07787         1.05866
C         50.49366        40.37492         0.84963
C         49.18474        39.63419         0.93330
C         50.52242        41.71777         0.14232
C         49.33466        42.28344        -0.41051
C         50.68835        43.98062        -1.45571
C         49.41791        43.37191        -1.33652
C         51.56293        29.39041        -0.36151
C         52.88572        31.59722         0.16070
C         51.90821        30.55357         0.52015
C         52.78757        32.81048         0.41806
C         51.68108        33.71794         0.53611
C         52.77183        35.97591         0.29441
C         51.67881        35.06047         0.34224
C         52.91075        37.16353         0.62552
C         51.77628        38.05221         0.93125
C         52.94015        40.43149         0.90243
C         51.79579        39.53709         1.06392
C         52.91771        41.52363         0.32093
C         51.81115        42.33547        -0.09151
C         51.69920        43.46151        -0.89948
O         34.91790        43.73853        -3.15114
O         38.04728        40.36986        -1.42826
O         45.35000        45.62943        -1.15485
O         51.71296        38.66517         2.22629
O         36.89237        37.58667         1.93875
O         33.93913        33.87132        -1.10042
O         31.57124        35.06495        -1.32129
O         47.27239        35.73052         2.24207
O         46.03394        39.59313        -1.04397
O         37.94968        27.14571        -2.53829
O         46.98609        31.02752         1.75792
O         36.94342        30.25255         1.86860
O         48.62424        44.07709         1.18793
O         49.76948        40.29696         2.10976
O         42.35082        33.35519         1.91354
O         39.59147        37.81622         2.31588
O         38.76470        35.83269        -0.83838
O         41.83084        30.64381        -1.83162
O         40.06042        28.67716        -2.63648
O         42.49565        45.54076         1.39946
H         42.11650        46.29350         1.90134
O         37.64049        43.77616        -2.77894
H         36.67569        43.77845        -2.99215
O         48.07040        37.40517        -0.94802
H         47.26443        36.98397        -1.34385
O         31.02234        33.77315        -1.68122
H         31.82909        33.27977        -1.98808
O         46.49815        38.18429         2.28935
H         47.39995        38.23857         2.69163
O         39.02152        28.91215         0.83887
H         38.31177        29.32351         1.42365
O         35.14214        37.62151        -1.30428
H         35.43777        36.79127        -1.74924
O         49.78477        35.26358         2.38929
H         48.98932        35.34463         2.97017
O         33.59689        32.53373        -1.55337
H         34.47236        32.04905        -1.59641
O         40.43615        35.41306         2.46487
H         39.84267        35.98890         3.00006
O         44.80621        36.04387         2.27102
H         45.42742        36.66432         2.72922
O         46.69343        33.31513         2.48765
H         45.95310        33.77047         2.94235
O         32.61358        39.88511        -1.42134
H         31.85494        40.38144        -1.80863
O         46.78933        28.54166         1.21831
H         47.10195        29.17528         1.91340
O         40.24339        32.10617         1.91953
H         40.32149        32.69704         2.69898
O         39.90828        43.07153        -2.25118
H         39.21413        43.00957        -2.95173
O         39.99626        44.94560         0.88892
H         39.74250        44.15515         1.42633
O         33.15653        29.75011        -0.79064
H         32.32934        30.25655        -0.65025
O         35.57785        28.14108         1.28082
H         36.17756        28.76323         1.79494
O         45.46691        31.77038        -1.42805
H         44.70817        32.29119        -1.76606
O         41.55161        38.86581        -1.20592
H         41.33164        39.58180        -1.83958
O         35.34374        42.33831         1.47458
H         34.47909        42.09893         1.90560
O         30.85856        41.89314        -1.55433
H         29.93407        42.16449        -1.73017
O         48.34064        43.79995        -2.02357
H         48.58572        44.53096        -2.62344
O         38.84798        40.24780         2.12881
H         39.30369        39.64530         2.76566
O         47.89521        41.13325        -1.75777
H         47.00437        40.75053        -1.93605
O         38.68671        42.80262         1.20206
H         38.65765        41.99604         1.78291
O         33.44718        32.15792         2.98955
H         33.95111        31.39449         3.34208
O         41.74373        26.33009        -3.10546
H         40.88047        26.10387        -3.51085
O         47.65941        33.21970        -1.03213
H         48.41386        32.79672        -1.50308
O         45.08950        26.63660         0.61668
H         45.88480        26.88544         1.14670
O         43.06232        44.74699        -2.12877
H         42.17429        44.88678        -2.54321
O         34.33618        38.07182         2.26984
H         33.51250        38.36023         2.73401
O         45.56026        37.14959        -1.13152
H         45.49272        38.04968        -1.54523
O         44.26758        39.89325         2.12448
H         43.44469        39.56350         2.56580
O         45.14524        29.24978        -1.99109
H         46.01341        29.18646        -2.44853
O         52.02759        30.17515         1.82656
H         51.19735        29.72508         2.11793
O         44.08172        35.12679        -1.23074
H         44.38126        36.00052        -1.58601
O         47.75459        29.87051        -2.07227
H         48.56014        29.72795        -2.61296
O         44.46386        26.88183        -2.91004
H         43.70297        26.60518        -3.46630
O         49.98979        35.59244        -1.22040
H         50.53479        36.18346        -1.78783
O         37.74107        32.75999         2.35096
H         37.51550        31.78910         2.46429
O         32.76719        42.00995         1.58733
H         32.37367        42.89052         1.77060
O         50.22610        31.77662        -1.14340
H         50.94196        32.38593        -1.42724
O         40.17723        32.56072        -1.64783
H         40.58686        31.99156        -2.34262
O         31.55277        38.12774         2.55137
H         31.24371        37.24618         2.85186
O         35.66964        30.57089        -1.52384
H         35.43204        29.94215        -2.24324
O         40.67830        45.74217        -2.56816
H         40.71873        46.63159        -2.97808
O         36.13457        44.50711         0.25934
H         35.66910        43.95730         0.94887
O         49.21835        37.78076         2.45410
H         49.96955        38.29053         2.85388
O         49.37915        30.23318         2.03921
H         49.51570        31.04889         2.58553
O         36.43061        35.07698        -1.46860
H         37.36034        35.06876        -1.80951
O         41.88656        38.70924         2.41422
H         41.88092        37.94781         3.03295
O         50.53661        38.04181        -0.99752
H         49.64516        37.95779        -1.41995
O         41.31615        35.32707        -1.04732
H         42.17723        35.15288        -1.50095
O         47.44156        40.99836         1.86526
H         48.24394        41.32840         2.33476
O         34.06805        35.21579         2.31423
H         34.32358        36.11696         2.63604
O         50.54781        32.64587         2.39160
H         50.45198        33.53046         2.82886
O         43.86555        28.86968         1.38215
H         44.06548        27.89898         1.40403
