         234
 CSIRO Nanostructure Databank - Neutral Graphene Oxide Data Set
C          1.20848         2.00631         0.49068
C          1.12859         3.32929         0.17489
C          2.44814         1.30498         0.47441
C          2.32397         4.07176        -0.36110
C          1.19049         6.29408         0.19896
C          1.19451         7.72432         0.21463
C          2.30481         5.57650        -0.12969
C          2.35440         8.46140         0.01635
C          1.33489        10.62641         0.90836
C          1.37055        11.97721         1.05335
C          2.28391         9.97149        -0.06340
C          2.41189        12.75622         0.43225
C          1.24208        14.97924         0.91373
C          1.28444        16.31538         1.06888
C          2.28079        14.20598         0.19672
C          2.34731        17.15539         0.47899
C          2.56618        18.50953         1.04157
C          3.65824         1.98640         0.28747
C          3.63821         3.42294         0.05946
C          4.90187         1.32182         0.43015
C          4.81427         4.13411         0.11052
C          3.57354         6.30680        -0.50705
C          3.58335         7.79323        -0.22409
C          4.78398         5.62028         0.09896
C          4.80889         8.49382        -0.34889
C          3.61859        10.67414        -0.04769
C          3.59176        12.09272         0.01894
C          4.82515         9.95966        -0.34349
C          4.80296        12.85896        -0.25343
C          3.50511        14.96243        -0.34111
C          3.49393        16.47087        -0.22560
C          4.79651        14.22607        -0.36698
C          4.78959        17.22542        -0.33508
C          3.73017        19.17819         0.87777
C          4.89101        18.58846         0.23540
C          6.12478         2.01231         0.36930
C          6.10125         3.46711         0.22167
C          7.35056         1.33606         0.55247
C          7.28984         4.16973         0.15743
C          6.05877         6.39936         0.13635
C          6.04854         7.80959        -0.31245
C          7.35169         5.64743         0.20388
C          7.28336         8.47208        -0.59066
C          6.01585        10.64126        -0.53529
C          6.09154        12.07950        -0.10779
C          7.25005         9.92831        -1.02651
C          7.34939        12.81158        -0.50099
C          6.07340        14.93933        -0.82291
C          6.08527        16.45831        -0.56779
C          7.33759        14.20750        -0.40381
C          7.32129        17.17324        -0.23444
C          6.08487        19.26334         0.14959
C          7.33148        18.58566        -0.13893
C          8.59991         2.00214         0.45953
C          8.55965         3.42639         0.02232
C          9.81103         1.33838         0.57357
C          9.82663         4.15762        -0.26945
C          8.61494         6.38838        -0.16802
C          8.48967         7.78929        -0.62527
C          9.86775         5.63734        -0.45032
C          9.71402         8.48101        -1.09088
C          8.55525        10.65170        -0.71543
C          8.55424        12.06974        -0.53136
C          9.74006         9.95162        -0.90887
C          9.84012        12.77641        -0.34816
C          8.57858        14.92232        -0.10865
C          8.56904        16.45415        -0.00708
C          9.87338        14.24795        -0.33720
C          9.81901        17.16533        -0.19280
C          8.56169        19.28013        -0.11172
C          9.81816        18.59873        -0.21411
C         11.10586         2.03197         0.54490
C         11.11977         3.52484         0.13606
C         12.36453         1.33062         0.38694
C         12.36034         4.11600        -0.37839
C         11.02176         6.25298        -0.81162
C         11.00372         7.69826        -1.19881
C         12.30980         5.47479        -1.05595
C         12.28479         8.46099        -0.99365
C         11.01655        10.66735        -1.14650
C         11.12799        12.06740        -0.64683
C         12.29876         9.92070        -1.34808
C         12.38174        12.84088        -0.83050
C         11.06049        14.93811        -0.48695
C         11.03212        16.41846        -0.52950
C         12.33986        14.26941        -0.67224
C         12.33938        17.17298        -0.52795
C         11.04469        19.28860        -0.17559
C         12.29908        18.53138         0.14344
C         13.57102         2.01370         0.11507
C         13.54955         3.43327        -0.26224
C         14.78394         1.32215         0.06206
C         14.81467         4.12389        -0.49839
C         13.58375         6.24421        -0.74867
C         13.56969         7.72409        -0.73166
C         14.76801         5.57672        -0.61676
C         14.85924         8.45040        -0.71581
C         13.59094        10.67526        -1.21582
C         13.58185        12.13844        -0.96370
C         14.85026         9.91466        -0.91123
C         14.85614        12.81867        -0.91491
C         13.55264        15.00697        -0.73183
C         13.60458        16.40876        -0.52000
C         14.82039        14.29885        -1.02815
C         14.81339        17.12559        -0.33339
C         13.58295        19.27360        -0.04151
C         14.78510        18.57126        -0.10466
C         16.03804         1.94292        -0.47634
C         16.01972         3.45185        -0.40776
C         17.27687         1.31649         0.09522
C         17.27696         4.17655        -0.27398
C         16.07291         6.30478        -0.83707
C         16.05030         7.78234        -0.49627
C         17.27741         5.57785        -0.33182
C         17.27232         8.47823        -0.18510
C         15.96907        10.69039        -0.30798
C         16.03406        12.13484        -0.63861
C         17.19178         9.92838         0.11379
C         17.36160        12.77975        -0.62106
C         16.12606        15.07156        -0.86279
C         16.06884        16.46010        -0.36737
C         17.41214        14.32218        -0.71307
C         17.26775        17.12246        -0.03525
C         16.02146        19.24949         0.07277
C         17.24101        18.55325         0.18181
C         18.42335         2.03692         0.34095
C         18.44265         3.46269         0.13955
C         19.66579         1.34903         0.68798
C         19.63084         4.21520         0.51244
C         18.52793         6.34174        -0.34965
C         18.51271         7.80621        -0.12578
C         19.80956         5.59671         0.00788
C         19.74446         8.45840         0.17144
C         18.45204        10.69934         0.36191
C         18.52591        12.11443        -0.00873
C         19.76385         9.91374         0.43965
C         19.73426        12.81223         0.15474
C         18.56940        15.00272        -0.12545
C         18.51068        16.40714         0.09117
C         19.75918        14.26606         0.12590
C         19.70264        17.10944         0.43871
C         18.44258        19.22984         0.47877
C         19.66568        18.53573         0.61077
C         20.84744         1.98335         0.86989
C         20.93318         3.45388         0.91268
C         22.17592         4.18256         0.71147
C         21.02524         6.33512         0.36973
C         20.99114         7.76525         0.27204
C         22.19294         5.56234         0.60835
C         22.19825         8.53471         0.32750
C         21.01487        10.67021         0.31699
C         20.97156        12.09117         0.37921
C         22.21391         9.91374         0.26693
C         22.16033        12.84468         0.59408
C         20.95526        14.96566         0.45627
C         20.93820        16.40827         0.58171
C         22.14801        14.21944         0.66182
C         22.10510        17.14896         0.87679
C         20.86536        19.23025         0.91036
C         22.06315        18.53741         1.03499
O         10.24501         7.99315        -2.40061
O          8.23468         6.17958         1.25361
O         17.72092        13.48677        -1.85893
O         10.65184        12.15917         0.73942
O         20.03969         4.06554         1.90222
O         16.15642        10.32269         1.09848
O         12.71857         8.26401         0.39186
O         11.16985         3.15854         1.52726
O          2.46701        14.49245        -1.24222
O          8.51732        15.58813         1.22387
O         15.51856        14.88421        -2.17648
O          5.37323        17.14682        -1.67247
O         14.54071        10.30665        -2.28711
O         19.44420         5.82433        -1.39677
O          2.42816        17.10133        -0.99048
O         11.62596        17.02190        -1.77594
O          9.12167         3.50951        -1.37862
O         19.02672        10.33886         1.65247
O          5.22609         6.20371         1.35581
O         11.53943        10.38234        -2.49673
O          2.26318         3.89543        -1.81880
H          2.93931         4.50819        -2.20309
O         12.33728         5.25091        -2.50057
H         13.24684         4.98651        -2.75474
O          7.15060         9.93121        -2.48867
H          7.96030         9.50716        -2.84797
O          6.08030        14.77553        -2.27085
H          5.55263        15.52052        -2.64626
O          1.71769        10.22390        -1.40832
H          1.70192        11.19727        -1.54003
O          6.24488        11.96595         1.36953
H          6.64124        12.80109         1.70032
O         12.22825        18.19845         1.59669
H         12.21855        19.04463         2.09256
O         16.22559         6.27630        -2.31180
H         17.17617         6.41130        -2.52017
O          3.75112         6.16967        -1.96876
H          3.11730         6.78315        -2.40010
O         16.06094         1.60529        -1.92620
H         15.24857         1.98490        -2.32486
H          0.29928         1.45708         0.77675
H          0.14674         3.82306         0.16485
H          2.46220         0.22664         0.68806
H          0.24423         5.78641         0.43460
H          0.24039         8.23926         0.39006
H          0.53257        10.04249         1.38074
H          0.60080        12.48151         1.65489
H          0.42897        14.41884         1.39693
H          0.50976        16.82055         1.66566
H          1.73403        18.97552         1.58997
H          4.90706         0.23587         0.60801
H          3.84133        20.19288         1.28833
H          7.33600         0.25789         0.77132
H          6.13616        20.31382         0.47438
H          9.81598         0.24519         0.70141
H          8.55728        20.37433        -0.00477
H         12.36682         0.23107         0.40958
H         11.04811        20.38784        -0.12359
H         14.79571         0.24436         0.28374
H         13.60050        20.36456         0.10740
H         17.28066         0.22352         0.22420
H         16.01372        20.34031         0.21591
H         19.63546         0.24907         0.70355
H         18.42516        20.32059         0.62105
H         21.77288         1.40342         1.00464
H         23.11857         3.61849         0.66663
H         23.16916         6.06834         0.62664
H         23.16057         8.00580         0.34885
H         23.18433        10.42658         0.21934
H         23.10884        12.31834         0.76557
H         23.08894        14.73969         0.88329
H         23.07205        16.64087         0.98632
H         20.83780        20.32187         1.03680
H         22.98974        19.08245         1.26293
