         277
 CSIRO Nanostructure Databank - Neutral Graphene Oxide Data Set
C         30.73247        31.51942        -0.28908
C         30.78960        32.75349        -0.49637
C         30.78702        35.83560        -1.20387
C         30.69152        37.03566        -1.48402
C         30.61968        40.12881        -0.96938
C         30.25710        41.23443        -0.41188
C         32.93997        28.96968         1.29870
C         32.01940        29.44216         0.61873
C         33.05124        31.57668         0.33065
C         31.86650        30.80202         0.17725
C         33.06678        32.99088         0.06934
C         31.86065        33.66926        -0.38844
C         33.03555        35.82730        -0.52172
C         31.85347        35.03260        -0.68609
C         33.05557        37.21978        -0.89697
C         31.90330        37.92539        -1.65149
C         32.94006        40.15498        -1.18950
C         31.75039        39.36167        -1.20928
C         32.91268        41.56086        -1.22589
C         30.94303        42.40248        -0.79310
C         32.47712        44.21669        -0.13668
C         31.41455        43.56602        -0.13391
C         35.67871        27.53196         2.00591
C         35.44850        28.97897         2.06577
C         34.19645        29.64538         1.63881
C         35.51179        31.79779         1.06811
C         34.35786        30.87841         0.69222
C         35.47643        33.13098         0.74908
C         34.23757        33.77366         0.28188
C         35.29457        36.02341         0.39626
C         34.19041        35.18879         0.04835
C         35.28389        37.36706         0.03304
C         34.18713        37.98199        -0.64688
C         35.10500        40.23739        -0.04503
C         34.29737        39.44773        -1.09141
C         35.22009        41.74896        -0.24424
C         34.01730        42.44036        -0.81442
C         35.07478        44.62700         0.29584
C         33.88719        43.95889        -0.39567
C         35.34773        46.09548         0.02653
C         37.75165        27.36379         0.68521
C         36.56099        26.87258         1.45741
C         37.90990        28.85730         1.15995
C         36.78554        29.64417         1.76039
C         38.01380        31.80303         1.12508
C         36.76169        31.18152         1.74602
C         38.05696        33.31866         1.26193
C         36.74754        33.99593         0.67394
C         37.66099        36.31695         1.15587
C         36.42403        35.44091         1.23769
C         37.77674        37.42325         0.39028
C         36.49294        38.16088         0.33454
C         37.75833        40.32854         0.04801
C         36.48442        39.64797         0.24923
C         37.82836        41.79393        -0.28353
C         36.49778        42.49890        -0.05190
C         37.76563        44.68392         0.25269
C         36.48750        44.00438        -0.27808
C         37.77640        46.11080         0.35752
C         36.43118        46.63618         0.29950
C         39.98422        24.48709        -0.39136
C         39.20844        25.23737         0.21031
C         40.23019        27.37152         0.28724
C         39.06039        26.58014         0.93010
C         40.21928        28.88663         0.39211
C         39.09213        29.60719         0.63410
C         40.25709        31.76409         0.05298
C         39.07687        31.08999         0.60415
C         40.33943        33.15256        -0.00510
C         39.29080        33.93138         0.59985
C         40.52473        36.05566         0.08938
C         39.55203        35.25907         0.81383
C         40.35471        37.40819        -0.19062
C         39.00374        38.13699        -0.15872
C         40.25689        40.34875         0.05035
C         39.02275        39.58967         0.46257
C         40.25811        41.76662         0.15800
C         38.97021        42.46866         0.53368
C         40.21594        44.69690         0.27554
C         38.98319        43.97934         0.31232
C         40.22210        46.09180         0.37649
C         38.98349        46.79267         0.52813
C         40.26925        48.84078         1.04908
C         39.24616        48.17190         0.84565
C         42.34376        24.49962        -1.04012
C         41.07603        23.85594        -1.06747
C         42.66750        27.32066        -0.03616
C         41.57862        26.73104         0.57038
C         42.70543        28.79441         0.31135
C         41.45393        29.53472        -0.20410
C         42.72170        31.60338        -0.72605
C         41.57574        31.02501         0.10673
C         42.72044        33.10543        -1.02266
C         41.54408        33.86688        -0.42283
C         42.83067        35.96498        -0.99746
C         41.63100        35.24734        -0.40584
C         42.84610        37.46714        -0.70126
C         41.47270        38.19351        -0.89676
C         42.43434        40.54288        -0.85266
C         41.37103        39.69442        -0.51399
C         42.62218        41.84784        -0.39202
C         41.44213        42.50647        -0.00074
C         42.78114        44.69467        -0.02315
C         41.44893        43.98912        -0.19736
C         42.76849        46.07910         0.05764
C         41.49368        46.89271         0.19190
C         42.88743        48.77391         0.80090
C         41.60230        48.14068         1.23773
C         43.35269        25.16958        -0.76656
C         45.14808        27.02353         0.03569
C         43.84691        26.60230        -0.67755
C         45.29033        28.64710        -0.12706
C         44.03590        29.46345        -0.00674
C         45.32106        31.50907        -0.68155
C         44.01235        30.83032        -0.63640
C         45.30623        32.96784        -0.47736
C         44.02925        33.74539        -0.55857
C         45.30067        35.83605        -0.40619
C         44.12054        35.22397        -0.66186
C         45.29775        37.28908        -0.18339
C         44.08509        38.04765        -0.59469
C         45.29241        40.22469        -0.24450
C         44.31556        39.45858        -0.80927
C         45.29206        41.74765        -0.35552
C         43.95354        42.42284         0.11032
C         45.27304        44.56630         0.02361
C         44.02199        43.94296        -0.06062
C         45.34335        46.04786        -0.18270
C         44.03147        46.82767        -0.15375
C         43.88270        48.20215         0.35144
C         47.45056        27.21853        -0.80755
C         46.44391        26.54582        -0.56181
C         47.67666        28.63453        -0.96309
C         46.51710        29.33899        -0.69172
C         47.77434        31.54232        -0.56381
C         46.51690        30.81165        -0.67216
C         47.84037        32.93771        -0.51228
C         46.57630        33.71751        -0.82179
C         47.85323        35.87841        -0.56180
C         46.59910        35.09175        -0.12498
C         47.88494        37.30094        -0.04391
C         46.58367        38.02219         0.04663
C         47.86094        40.24462        -0.01262
C         46.58683        39.50585        -0.14476
C         47.82888        41.68882         0.32385
C         46.44471        42.32545         0.54628
C         47.64068        44.46437         0.84757
C         46.47514        43.83964         0.41363
C         47.49906        45.88393         0.78405
C         46.63721        46.59954         0.23557
C         50.26298        28.67763        -0.70494
C         48.98473        29.30808        -1.07747
C         50.24058        31.37705         0.03071
C         49.03882        30.77786        -0.66939
C         50.26178        32.88495         0.12764
C         49.06850        33.66621        -0.31421
C         50.34749        35.81704        -0.10202
C         49.13127        35.08453        -0.30137
C         50.34131        37.22203         0.15651
C         49.07869        37.96021         0.08329
C         50.31967        40.13196         0.71043
C         49.12360        39.44754         0.14640
C         50.03531        41.42844         1.41330
C         48.92632        42.28657         0.87645
C         50.10465        44.30194         1.59041
C         48.72818        43.67194         1.52596
C         51.35099        29.21912        -0.45800
C         52.69872        31.41699         0.19927
C         51.53951        30.52599         0.18368
C         52.68890        32.65139         0.17177
C         51.59882        33.62717         0.23902
C         52.76987        35.86590         0.31684
C         51.68044        35.02897        -0.30439
C         52.63095        37.05370         0.62250
C         51.51634        37.95011         0.61963
C         52.67047        40.07849         1.35258
C         51.53652        39.30546         1.00036
C         52.53058        41.37961         1.47579
C         51.68538        42.39717         1.41530
C         51.19172        43.67583         1.57883
O         45.75062        37.62693         1.18960
O         44.56068        33.30536         0.75037
O         50.79716        33.41876         1.39924
O         46.27188        41.96873         1.91024
O         47.33558        39.92230        -1.36992
O         43.41032        40.03132        -1.70128
O         49.20469        30.33305        -2.07596
O         41.33253        47.63571        -1.09566
O         38.80976        35.87501         1.81820
O         50.11896        40.10188        -0.73559
O         41.36675        44.02739        -1.78263
O         35.70288        42.18414         1.10772
O         43.21466        30.85291        -1.87254
O         31.83847        42.17869        -1.91959
O         44.72487        46.55685        -1.38165
O         50.63975        30.71018         1.27888
O         44.95591        29.34054         1.12316
O         36.41643        38.94695         1.59825
O         34.61956        29.67034         3.00761
O         34.18276        43.56944        -1.73789
O         45.02513        26.69760         1.39618
H         45.81538        27.01963         1.87774
O         38.70589        42.29396         1.93665
H         38.90948        41.35408         2.17791
O         36.54030        44.28174        -1.68387
H         37.03536        43.55040        -2.12289
O         48.29425        43.38882         2.87294
H         47.41380        42.88785         2.75368
O         45.53496        42.12459        -1.71545
H         46.24087        41.53195        -2.06509
O         51.90590        34.91552        -1.70692
H         52.14732        35.79469        -2.06550
O         34.96297        39.49755        -2.35985
H         34.42414        38.98883        -3.00474
O         41.21604        38.15776        -2.34507
H         41.87115        38.76731        -2.75734
O         34.82765        30.22171        -0.54196
H         34.64636        30.82104        -1.29698
O         49.87178        41.22878         2.76095
H         49.36243        42.00497         3.13638
O         41.70842        47.65588         2.53773
H         41.78868        48.40110         3.16695
O         43.75804        42.16949         1.51796
H         44.65740        42.07473         1.96198
O         43.98258        27.07862        -2.02090
H         43.13286        26.95716        -2.49295
O         39.26443        26.42861         2.31473
H         38.39603        26.38465         2.77071
O         35.95641        35.32706         2.58512
H         36.72029        35.04896         3.13879
O         34.27704        40.07964         1.12445
H         34.72622        40.53429         1.87172
O         47.76304        36.08586        -2.01190
H         48.52284        36.63970        -2.29296
O         42.63108        33.26859        -2.44861
H         43.01791        32.46193        -2.86244
O         37.44163        27.39406        -0.71304
H         36.96759        26.57081        -0.95328
O         41.97959        31.27647         1.48088
H         42.02524        30.41847         1.97597
O         36.65249        31.51695         3.14153
H         36.88057        32.47095         3.25645
O         39.99433        44.07360        -2.20319
H         39.84524        45.05169        -2.31808
O         40.07715        27.13686        -1.16744
H         39.13404        27.35281        -1.39098
O         39.02619        39.50188         1.91200
H         38.12786        39.17022         2.18105
O         46.48251        33.83168        -2.25935
H         47.09943        34.53974        -2.56508
O         41.61154        25.57200         1.24232
H         42.54038        25.29856         1.38971
O         34.92118        44.46721         1.67756
H         35.68604        44.85988         2.14563
O         40.90206        22.73490        -1.78680
H         39.97837        22.42009        -1.73006
O         46.73917        34.88541         1.28727
H         45.92226        34.43580         1.60781
O         42.72886        35.90739        -2.44524
H         41.92423        36.41295        -2.70926
O         41.09859        46.65840        -2.13996
H         42.00638        46.48766        -2.49531
O         42.57841        28.80499         1.77366
H         43.49592        28.72090         2.13266
O         37.82905        29.06062         2.60408
O         32.28737        37.94677        -3.03354
H         31.61042        38.44655        -3.53692
O         38.09600        33.63080         2.68525
H         38.95324        33.31136         3.04000
O         41.31491        29.40561        -1.62689
H         41.03357        28.47571        -1.81382
O         38.64253        38.33331        -1.55480
H         39.46190        38.40114        -2.10416
O         38.13384        41.98541        -1.69814
H         38.96133        42.52250        -1.79880
O         36.99072        34.20182        -0.73316
H         37.16955        33.33658        -1.15648
