         762
 CSIRO Nanostructure Databank - Neutral Graphene Oxide Data Set
C         23.37233        24.32639         2.19111
C         22.20840        24.95085         1.85562
C         23.27501        27.15701         1.71205
C         22.15024        26.35917         1.64694
C         23.24426        28.57209         1.38465
C         22.02356        29.19995         1.04610
C         23.03896        31.40214         0.93635
C         21.92582        30.57018         0.80567
C         22.97797        32.81537         0.67208
C         21.79077        33.53856         0.65593
C         22.88467        35.70492         0.22123
C         21.75371        34.94562         0.48079
C         22.90243        37.16446         0.29100
C         21.75785        37.87114         0.71481
C         22.90600        39.99610         0.49986
C         21.74646        39.25900         0.77963
C         22.88095        41.49137         0.48157
C         21.73754        42.25924         0.99555
C         23.03094        44.36587         1.03100
C         21.81225        43.60906         1.17046
C         23.04546        45.80718         1.21100
C         21.84477        46.55057         1.24147
C         23.09236        48.59834         1.54109
C         21.87441        47.92741         1.42214
C         25.95507        22.95284         2.34529
C         25.90496        24.40399         2.59359
C         24.56881        25.09563         2.54522
C         25.80416        27.33367         1.95039
C         24.54127        26.60550         2.23219
C         25.72145        28.71934         1.64586
C         24.43825        29.33697         1.47637
C         25.61166        31.60284         1.15778
C         24.31759        30.79926         1.34980
C         25.54017        32.92735         0.49298
C         24.21201        33.49236         0.22953
C         25.40448        35.73598        -0.19791
C         24.13535        34.99764        -0.09105
C         25.23639        37.15433        -0.70694
C         24.08497        37.89483        -0.01546
C         25.38379        40.02656         0.15185
C         24.08078        39.29885         0.11852
C         25.45958        41.48368         0.47064
C         24.18758        42.25613         0.42141
C         25.50618        44.30975         0.91889
C         24.23993        43.68184         0.79411
C         25.53349        45.70585         1.37526
C         24.28567        46.49021         1.35063
C         25.58747        48.64207         1.48160
C         24.31545        47.90246         1.49543
C         25.62014        50.04402         1.61225
C         28.33769        23.04757         1.75818
C         27.10517        22.32992         2.00738
C         28.36348        24.45134         1.84607
C         27.16507        25.20364         2.30835
C         28.25135        27.36390         1.73637
C         27.06617        26.66286         1.98813
C         28.23062        28.79273         1.52245
C         26.94429        29.49496         1.47136
C         28.08086        31.69558         1.01901
C         26.87976        30.85578         1.16110
C         27.98761        33.01105         0.29579
C         26.67684        33.63504         0.12681
C         27.80206        35.72763        -0.80716
C         26.59158        35.04809        -0.26006
C         27.85459        37.22527        -0.86454
C         26.54935        37.94420        -0.82688
C         27.85515        40.14504        -0.42568
C         26.57701        39.42109        -0.49883
C         27.91041        41.50770        -0.08137
C         26.72432        42.24012         0.31764
C         28.02478        44.32820         0.73528
C         26.72728        43.60117         0.65037
C         28.04759        45.80569         0.76530
C         26.87986        46.49927         1.29013
C         28.01404        48.70860         1.08506
C         26.81519        47.97754         1.24588
C         28.02763        50.11585         1.22783
C         26.81157        50.75457         1.51796
C         30.60438        20.25318         0.72554
C         29.51729        20.91796         1.23080
C         30.70603        23.05179         1.03268
C         29.51090        22.33841         1.33835
C         30.74085        24.46468         1.23386
C         29.56963        25.15644         1.59119
C         30.83897        27.38221         1.59097
C         29.55543        26.63053         1.80353
C         30.75614        28.85608         1.34647
C         29.42421        29.50148         1.33751
C         30.56673        31.58476         0.47696
C         29.42183        30.95998         1.15888
C         30.43669        33.04201         0.22059
C         29.12878        33.64506        -0.12609
C         30.36475        35.73037        -1.11195
C         29.09098        34.95752        -0.84198
C         30.34327        37.26796        -1.32998
C         29.03216        37.92510        -0.91359
C         30.32622        40.16673        -0.81114
C         29.02713        39.44291        -1.07557
C         30.30961        41.55836        -0.67957
C         29.14335        42.22681        -0.25005
C         30.42961        44.43704        -0.23728
C         29.27027        43.61737         0.21444
C         30.36597        45.85836        -0.06327
C         29.20958        46.51630         0.42473
C         30.44974        48.80674         0.34431
C         29.26892        47.97607         0.76718
C         30.41595        50.28602         0.39350
C         29.34826        50.89088         1.28316
C         30.30020        53.09176         0.59585
C         29.23846        52.37169         1.03236
C         32.62835        18.94847        -0.86503
C         32.83329        20.26316        -0.39074
C         31.76672        20.95689         0.30033
C         33.06340        23.04941         0.14925
C         31.85074        22.34660         0.51752
C         33.14210        24.44915         0.35476
C         32.05068        25.14406         1.07296
C         33.18865        27.35570         0.46087
C         32.10745        26.65786         1.19835
C         33.11174        28.76679         0.21417
C         31.93325        29.54784         0.68469
C         32.74676        31.58310        -0.70576
C         31.70214        30.90877         0.15680
C         32.94186        33.01122        -0.25528
C         31.68651        33.77255        -0.04926
C         32.86003        35.90571        -0.41947
C         31.65523        35.09134        -0.74666
C         32.93641        37.30212        -0.99864
C         31.58294        37.95826        -0.71503
C         32.89697        40.16092        -0.72734
C         31.59800        39.45292        -0.70697
C         32.86342        41.61085        -1.03046
C         31.54121        42.33652        -0.96536
C         32.80100        44.52756        -1.10616
C         31.54325        43.79888        -0.77774
C         32.76400        46.01649        -0.99965
C         31.45369        46.67151        -0.66318
C         32.69176        48.93979        -0.89709
C         31.45162        48.15554        -0.54831
C         32.65009        50.42967        -0.74513
C         31.48108        51.04636        -0.05786
C         32.77696        53.17528         0.13258
C         31.54078        52.46310         0.19978
C         32.84559        54.55473         0.50785
C         34.80616        18.97709        -1.89085
C         33.58738        18.32510        -1.64177
C         35.09490        20.24849        -1.36992
C         34.05356        20.93920        -0.68468
C         35.37269        23.06043        -0.75660
C         34.17521        22.34746        -0.39896
C         35.40494        24.46781        -0.59331
C         34.29622        25.16843        -0.04609
C         35.48538        27.33666        -0.40821
C         34.28881        26.62389        -0.01130
C         35.46080        28.78275        -0.50531
C         34.18400        29.43144        -0.39049
C         35.34721        31.61977        -0.98206
C         34.06981        30.83585        -0.83218
C         35.36412        33.06927        -0.68459
C         34.11961        33.69538        -0.27605
C         35.37947        35.91414        -0.03541
C         34.09735        35.16243        -0.05666
C         35.31680        37.38791        -0.13881
C         34.15063        38.05461        -0.45209
C         35.24152        40.31456         0.07958
C         34.07969        39.50175        -0.46761
C         35.38965        41.66992        -0.56952
C         34.14404        42.39277        -0.97488
C         35.26613        44.58292        -0.57887
C         34.11061        43.86114        -0.88802
C         35.29512        46.01651        -0.49673
C         34.00240        46.72850        -0.54467
C         35.25896        48.95438        -0.60573
C         33.99021        48.24505        -0.62526
C         35.30759        50.38261        -0.81425
C         33.94578        51.19111        -0.79225
C         35.25284        53.23454        -0.21960
C         33.99935        52.54902        -0.27440
C         35.27371        54.60350         0.18715
C         34.03286        55.23677         0.51288
C         37.80824        15.85710        -0.95973
C         36.77462        16.40034        -1.71150
C         37.77647        18.63133        -1.51727
C         36.76095        17.77492        -1.97574
C         37.69153        20.10397        -1.77446
C         36.39479        20.92429        -1.63820
C         37.77263        23.02993        -1.46378
C         36.52113        22.36204        -1.28741
C         37.84334        24.48360        -1.33414
C         36.53677        25.23964        -1.23298
C         37.94880        27.34968        -0.69444
C         36.64859        26.64707        -0.71061
C         37.99742        28.87104        -0.56925
C         36.64208        29.50677        -0.75859
C         37.81486        31.62422        -1.19023
C         36.64209        30.91444        -0.89566
C         37.74005        33.08867        -1.32288
C         36.54589        33.75616        -0.75997
C         37.88018        35.94158        -0.58761
C         36.64673        35.17323        -0.35176
C         37.94851        37.30911         0.08001
C         36.60208        38.07870         0.18461
C         37.82000        40.34909        -0.08836
C         36.58223        39.57706         0.17800
C         37.77897        41.74770        -0.04069
C         36.55512        42.44036        -0.11361
C         37.70899        44.69904         0.37317
C         36.44703        43.88875        -0.00365
C         37.74140        46.11272        -0.02946
C         36.48102        46.74366        -0.23127
C         37.79389        48.99244        -0.20425
C         36.43689        48.22469        -0.14601
C         37.75631        50.41749        -0.55018
C         36.55931        51.12357        -0.58359
C         37.71689        53.28824        -0.42309
C         36.50364        52.56021        -0.48306
C         37.71797        54.65505        -0.06902
C         36.51462        55.31161         0.27670
C         37.72683        57.35013         0.93238
C         36.56855        56.65906         0.80397
C         40.03106        14.65526         0.44830
C         40.04018        16.03275         0.15071
C         38.87502        16.65966        -0.50046
C         40.01325        18.87618        -0.40442
C         38.86583        18.04018        -0.82531
C         40.22934        20.15973        -1.13363
C         38.98973        20.85298        -1.72518
C         40.24763        23.01212        -1.84023
C         38.96412        22.31395        -1.74100
C         40.27771        24.48560        -1.72697
C         39.02819        25.17288        -1.51127
C         40.31048        27.39999        -1.67976
C         39.15101        26.62187        -1.17833
C         40.31705        28.80795        -1.73152
C         39.11224        29.54941        -1.37382
C         40.20155        31.72541        -1.98220
C         39.03581        30.92977        -1.50419
C         40.28470        33.15006        -1.58276
C         39.05118        33.90051        -1.42298
C         40.32213        35.98824        -0.76260
C         39.05739        35.30276        -0.91811
C         40.36057        37.38883        -0.63478
C         39.05555        38.12017        -0.57850
C         40.32148        40.37138        -0.61787
C         39.01728        39.62382        -0.56716
C         40.32095        41.83204        -0.22263
C         39.03163        42.56198        -0.05061
C         40.27240        44.72474         0.49189
C         38.98889        43.89326         0.71077
C         40.21403        46.09825        -0.02613
C         39.00321        46.80944        -0.18229
C         40.25498        48.96788        -0.55228
C         39.04541        48.23857        -0.39212
C         40.29778        50.38257        -0.64991
C         39.02053        51.09881        -0.83185
C         40.28162        53.30463        -0.52722
C         38.99071        52.63287        -0.78237
C         40.27222        54.66890        -0.21505
C         38.98912        55.40623        -0.12381
C         40.29678        57.52978         0.75181
C         38.99246        56.83345         0.38842
C         40.30683        58.18810         2.10495
C         42.40948        14.67266         0.86690
C         41.19669        13.99946         0.85136
C         42.46945        16.06495         0.60258
C         41.24047        16.76138         0.36434
C         42.50959        18.98755         0.26055
C         41.21361        18.23277         0.26235
C         42.57283        20.34698        -0.30523
C         41.45317        20.93574        -0.86434
C         42.60752        23.19432        -0.85771
C         41.53895        22.28361        -1.43538
C         42.75654        24.44087        -1.73228
C         41.46793        25.17548        -1.82556
C         42.84071        27.38005        -2.19322
C         41.46955        26.62705        -2.08775
C         42.79229        28.84593        -2.04511
C         41.54077        29.51340        -2.01949
C         42.78692        31.77090        -2.20382
C         41.49863        30.98424        -2.19495
C         42.83412        33.14967        -1.63900
C         41.55104        33.73912        -1.16700
C         42.88625        35.91622        -0.51077
C         41.55456        35.19127        -0.67651
C         42.82660        37.41456        -0.70054
C         41.59043        38.09156        -0.58377
C         42.83979        40.22500        -0.04138
C         41.59441        39.57877        -0.56044
C         42.87118        41.70293         0.22112
C         41.57466        42.45328         0.32758
C         42.81310        44.59181        -0.13845
C         41.60379        43.95655         0.36098
C         42.77685        46.06316        -0.00123
C         41.49440        46.74435        -0.37064
C         42.81403        48.99385        -0.55813
C         41.53438        48.23496        -0.65622
C         42.80604        50.41159        -0.68859
C         41.52260        51.12875        -0.72131
C         42.74650        53.31857        -0.88708
C         41.49526        52.54748        -0.67266
C         42.74410        54.78691        -0.53775
C         41.49639        55.39761        -0.01181
C         42.77669        57.28397         0.97412
C         41.53004        56.66137         0.56210
C         42.71985        58.32113         1.93723
C         41.50060        58.65166         2.58247
C         44.98727        16.06079         0.56501
C         43.74154        16.72797         0.46014
C         44.96729        18.78277        -0.42409
C         43.79247        18.19301         0.29079
C         45.03678        20.24727        -0.60075
C         43.88141        20.98219        -0.44170
C         45.22456        23.16459        -0.68787
C         43.91318        22.46936        -0.55018
C         45.27918        24.55490        -1.19598
C         44.06958        25.19077        -1.74743
C         45.26523        27.37398        -1.67823
C         44.08387        26.66051        -1.89516
C         45.25949        28.82849        -1.79184
C         44.03583        29.52784        -2.00676
C         45.33371        31.70503        -1.91417
C         44.09438        30.98216        -2.22610
C         45.27416        33.21238        -2.16012
C         44.01993        33.85963        -1.57698
C         45.24196        36.00181        -1.25521
C         44.06340        35.26982        -1.22264
C         45.28946        37.43277        -0.99334
C         44.05435        38.10416        -0.74878
C         45.36093        40.27627        -0.46003
C         44.12157        39.50314        -0.30051
C         45.31563        41.71159        -0.28215
C         44.15573        42.40930         0.01004
C         45.31318        44.66974        -0.28166
C         44.12495        43.90599         0.26659
C         45.28213        46.03181        -0.34431
C         44.04997        46.83483        -0.10520
C         45.25410        49.01299        -0.40160
C         44.03586        48.29939        -0.41463
C         45.27703        50.41769        -0.55258
C         44.04795        51.10807        -0.71775
C         45.37088        53.30791        -0.77808
C         44.06843        52.56820        -0.98359
C         45.35450        54.76385        -0.36871
C         44.04969        55.50617        -0.24543
C         45.27047        57.37670         0.86217
C         44.02083        56.72709         0.58610
C         46.19110        16.66809         0.27105
C         47.54139        18.62626        -0.78858
C         46.23663        17.93795        -0.45689
C         47.56048        20.05763        -1.26302
C         46.26365        20.90823        -1.28148
C         47.67009        23.05065        -1.28181
C         46.50075        22.31118        -0.65057
C         47.73950        24.53930        -1.16651
C         46.49088        25.25386        -1.22553
C         47.75219        27.35982        -1.45986
C         46.51257        26.67740        -1.44390
C         47.74923        28.81343        -1.70375
C         46.46994        29.54765        -1.67902
C         47.69507        31.68058        -1.05714
C         46.48845        30.98923        -1.66310
C         47.79825        33.14210        -1.39896
C         46.57285        33.89919        -1.75413
C         47.79372        36.01095        -1.16473
C         46.51131        35.23896        -1.06269
C         47.76723        37.48193        -1.48948
C         46.49841        38.16566        -1.01549
C         47.77887        40.33442        -1.02518
C         46.53231        39.58647        -0.80566
C         47.79528        41.70464        -0.93531
C         46.61221        42.42928        -0.41076
C         47.77779        44.63664        -1.00609
C         46.59935        43.93003        -0.41554
C         47.77436        46.12731        -0.87693
C         46.55283        46.79029        -0.34328
C         47.80952        48.98755        -0.48883
C         46.53293        48.28106        -0.27039
C         47.81953        50.38793        -0.41941
C         46.56277        51.13491        -0.48104
C         47.87994        53.23691        -0.35223
C         46.59792        52.51312        -0.50979
C         47.84114        54.68214         0.20142
C         46.47224        55.23736         0.56253
C         46.46025        56.73130         0.73347
C         49.87668        18.89232         0.06368
C         48.77609        18.10800        -0.16749
C         50.00658        20.22975        -0.40145
C         48.96991        20.73553        -1.38232
C         50.24361        22.96375        -1.44337
C         48.91786        22.25422        -1.46776
C         50.21275        24.48741        -1.41923
C         48.94088        25.22465        -1.29894
C         50.24335        27.38193        -1.18154
C         48.99001        26.66514        -1.33331
C         50.24666        28.76379        -1.07740
C         49.07978        29.55871        -1.47495
C         50.15780        31.70393        -0.77529
C         49.03850        30.99802        -1.14856
C         50.11534        33.15207        -0.58376
C         48.96810        33.86916        -0.83463
C         50.13600        36.07573        -0.44904
C         48.94587        35.32668        -0.90689
C         50.25561        37.51121        -0.78556
C         49.04086        38.22257        -1.12571
C         50.29406        40.33821        -1.17155
C         49.04032        39.61052        -1.17748
C         50.32243        41.72244        -1.18601
C         49.01792        42.45928        -1.42398
C         50.26650        44.61384        -1.05235
C         49.07133        43.92234        -1.05535
C         50.26881        46.07265        -0.81774
C         49.05005        46.81827        -0.70362
C         50.25058        48.92581        -0.28474
C         49.02349        48.23072        -0.48674
C         50.28250        50.31126        -0.18018
C         49.07466        51.06557        -0.28492
C         50.29573        53.14431         0.28536
C         49.11593        52.48040        -0.12723
C         50.18947        54.44522         0.89047
C         49.00476        55.11546         0.97330
C         52.36344        20.40259         0.38085
C         51.22113        20.96424        -0.25726
C         52.61133        22.98387        -0.67107
C         51.39227        22.27941        -0.80228
C         52.57818        24.35958        -1.13719
C         51.47750        25.17166        -1.13205
C         52.46449        27.19761         0.05806
C         51.62196        26.69299        -1.16448
C         52.43306        28.73495         0.20411
C         51.47462        29.49827        -0.66723
C         52.51603        31.71610         0.22692
C         51.45694        31.00138        -0.55437
C         52.49478        33.09374         0.27518
C         51.44344        33.86681        -0.48087
C         52.62484        36.05499         0.14956
C         51.33291        35.31224        -0.01759
C         52.73729        37.50253        -0.30548
C         51.48053        38.14711        -0.76276
C         52.89017        40.23623        -1.31143
C         51.55462        39.55109        -1.21520
C         52.89146        41.77589        -1.51696
C         51.55784        42.47002        -1.17769
C         52.81021        44.59920        -1.19331
C         51.52680        43.86182        -1.13917
C         52.75393        46.11226        -0.85651
C         51.46833        46.74387        -0.58547
C         52.74460        48.79133         0.15352
C         51.42423        48.08640         0.11016
C         52.89885        50.25353        -0.00427
C         51.58138        51.03565        -0.14566
C         52.77983        53.09698         0.47008
C         51.56663        52.46046         0.23749
C         53.54535        21.09692         0.51172
C         54.97772        23.10689         0.48967
C         53.74444        22.43061         0.04880
C         55.30433        24.54942         0.31475
C         54.32278        25.46780        -0.29555
C         54.83053        27.33260         1.12540
C         53.90113        26.66425         0.21317
C         54.73844        28.73995         1.34827
C         53.53552        29.48541         0.89858
C         54.72227        31.62916         1.31797
C         53.64099        30.97220         0.78812
C         54.78809        33.10802         1.29952
C         53.65797        33.84582         0.69272
C         55.11118        35.80002         0.21915
C         53.78656        35.18920         0.42026
C         55.21727        37.17700        -0.37918
C         54.07305        38.14561        -0.58340
C         55.38244        40.32752        -0.95929
C         54.15350        39.49649        -0.91539
C         55.33356        41.78331        -0.83982
C         54.10949        42.48387        -0.94727
C         55.29516        44.63908        -0.75493
C         54.09701        43.89583        -0.91165
C         55.24886        46.13419        -0.71182
C         53.94551        46.68469        -0.24529
C         55.71349        49.09839         0.16879
C         53.82172        47.92503         0.38197
C         55.48236        50.48433         0.02089
C         54.15354        51.04525         0.25635
C         54.01970        52.41871         0.41634
C         56.85019        23.04527         2.16038
C         55.90498        22.42905         1.29963
C         56.93317        24.42189         2.31445
C         56.21524        25.22058         1.31777
C         56.95156        27.29895         2.37758
C         55.96423        26.64354         1.59655
C         56.93693        28.72341         2.42094
C         55.83329        29.42839         1.89155
C         57.21408        31.50783         1.76928
C         55.81495        30.92990         2.10513
C         57.36035        32.96673         1.46707
C         56.11648        33.81223         1.42624
C         57.49210        35.84972         1.02300
C         56.28885        35.18758         0.88107
C         57.67790        37.10289         0.27686
C         56.62283        37.61493        -0.44446
C         57.87591        40.49235        -0.89988
C         56.65348        39.78840        -1.12350
C         57.82192        41.89487        -0.70161
C         56.55283        42.54448        -0.73394
C         57.80399        44.70007        -0.76506
C         56.54290        43.97387        -0.70762
C         57.79877        46.15728        -1.07691
C         56.52904        46.92973        -0.83251
C         57.85207        49.12328        -0.89543
C         56.70750        48.37648        -0.48243
C         57.74481        50.54672        -0.89042
C         56.57040        51.20298        -0.54573
C         58.37700        24.53274         4.37855
C         57.76208        25.14000         3.27293
C         59.07050        27.23851         3.78839
C         57.90818        26.55796         3.11114
C         59.07543        28.74845         3.65904
C         58.09569        29.40851         2.93223
C         59.59749        31.50191         2.88796
C         58.35716        30.75634         2.39122
C         59.71687        32.98588         2.60778
C         58.63652        33.70887         1.76644
C         59.65901        35.84730         2.35725
C         58.59553        35.19810         1.74944
C         59.98775        37.83083         1.06758
C         58.98773        37.74777         0.13991
C         60.27967        40.49449        -0.35676
C         59.11691        39.82411        -0.78333
C         60.26616        41.91645        -0.37088
C         59.04667        42.61263        -0.59075
C         60.34339        44.71844        -1.06644
C         59.02286        44.04279        -0.71780
C         60.35762        46.22325        -0.87494
C         59.09847        46.94019        -1.13739
C         60.33354        49.07839        -0.92747
C         59.09479        48.41904        -1.04288
C         59.03890        25.32892         5.36413
C         59.29808        26.65445         5.16193
C         60.15810        29.50570         4.22331
C         60.34069        30.83663         3.96474
C         60.52650        33.84071         3.47546
C         60.54254        35.18628         3.28361
C         61.22789        38.56891         0.88919
C         61.39269        39.72451         0.18476
C         61.46188        42.70253        -0.11961
C         61.50605        44.01649        -0.41212
C         61.51700        46.94813        -0.72016
C         61.51566        48.36784        -0.77433
O         28.22157        35.00709        -2.01884
O         30.38627        48.23029         1.71043
O         59.59486        30.74726         1.63610
O         24.03570        33.98269        -1.13987
O         52.58765        37.14756         1.13305
O         39.95653        20.13398        -2.56443
O         57.41557        31.95658         0.40470
O         59.86454        33.22257         1.17345
O         40.17812        18.93718         1.04397
O         43.35103        52.98232        -2.17884
O         47.59054        33.64467        -2.76797
O         31.77303        29.54986         2.14892
O         26.36328        38.94915        -1.88029
O         48.59955        29.24136        -2.82523
O         31.45884        38.57352         0.56511
O         32.11835        41.91201        -2.25663
O         41.11762        40.16696        -1.82344
O         50.43182        23.70677        -2.67488
O         36.95110        20.54712        -2.94530
O         43.36393        55.65573        -1.52994
O         47.54440        18.96574        -2.22360
O         47.51082        45.47662        -2.17813
O         38.96566        51.91618        -2.04953
O         55.63105        46.77105        -1.99682
O         35.69841        18.28688        -2.72890
O         30.89468        47.52378        -1.74053
O         52.91184        45.59788        -2.22431
O         37.09600        48.73101         1.06333
O         54.92455        48.40050         1.08187
O         52.37394        50.69311        -1.33170
O         53.79598        24.94293        -1.45933
O         44.54081        23.09082         0.64563
O         32.44816        49.77040        -2.05042
O         48.07671        22.61503        -2.61359
O         52.28715        39.62423        -2.51404
O         56.67490        24.89098        -0.05592
O         32.57761        25.80690         2.28029
O         43.48435        39.54550         1.06449
O         40.65077        31.39042        -3.33840
O         25.60669        40.47296         1.54380
O         55.24545        33.70085         2.58530
O         28.99128        43.71713         1.65785
O         45.65091        54.39588        -1.72326
O         28.86308        31.74903         2.25438
O         43.46872        31.50747        -3.45707
O         33.20692        35.71516         0.97624
O         36.68599        44.41301         1.36202
O         42.15945        41.89793         1.52133
O         31.20658        35.06066        -2.11887
O         45.30318        17.98825        -1.59700
O         43.56073        24.37075        -2.92489
O         33.77449        47.50370         0.67093
O         31.13698        33.80602         1.30276
O         46.97588        43.21196         0.80391
O         50.35470        35.67717         0.97805
O         48.08285        54.42177        -1.19198
O         32.79867        45.40205        -2.30977
O         26.37710        45.93930         2.54528
O         52.04576        30.32719        -1.73320
O         55.18910        35.98098        -1.27651
O         55.60836        31.11598         3.48190
O         36.59603        38.82092         1.45232
O         36.22527        35.42101         1.06314
O         59.21793        38.45050        -1.07278
O         43.42829        46.59264         1.23307
O         46.69599        47.44507         0.96210
O         52.28378        29.10044         1.61676
O         58.40459        46.44047        -2.38195
O         41.16050        44.57237         1.63585
O         59.86460        37.22573         2.33509
O         30.45916        37.57550        -2.71663
O         41.52858        47.25045        -1.75379
O         26.76702        24.85864         3.67787
O         39.74005        42.64469        -1.31379
O         23.41233        42.01051        -0.79792
O         42.08751        26.94874        -3.36730
O         24.93924        31.55664         2.45852
O         38.92893        56.56052        -1.05071
O         24.40100        26.08020         3.59623
O         34.62028        31.12830        -2.17011
O         41.20598        22.47244        -2.81839
O         30.39093        27.05493         2.93814
O         38.15674        33.67416        -2.58912
O         38.70145        38.83730        -1.78861
O         35.09408        41.83745        -1.98121
O         34.65550        50.92510        -2.01648
O         41.48211        34.08400         0.29771
O         56.83746        38.47443        -1.51988
O         38.89984        26.76007         0.29629
O         43.31937        18.89724         1.48677
O         47.69139        37.54415        -2.95852
H         48.44788        37.03895        -3.32578
O         51.93406        33.99186        -1.85392
H         52.09697        33.09126        -2.20957
O         40.44976        58.61073        -0.22407
H         40.24477        58.21725        -1.10274
O         32.14001        31.65849        -2.02288
H         32.87626        31.76270        -2.67178
O         53.02998        42.00127        -2.94701
H         52.62004        41.22572        -3.40017
O         34.83639        40.64991         1.43428
H         35.14101        39.91228         2.01585
O         51.17248        47.75575         1.55645
H         50.24393        47.44284         1.62903
O         48.85339        42.47606        -2.89056
H         49.58427        43.00978        -3.27082
O         49.52054        20.34392        -2.66411
H         49.00081        20.81040        -3.35568
O         60.27265        26.83146         3.02457
H         60.28101        25.85018         2.99819
O         45.87711        21.08823        -2.64820
H         46.04243        20.23711        -3.11294
O         45.15936        33.40455        -3.58938
H         46.04155        33.21150        -3.97994
O         29.81575        50.74301         2.66550
H         30.06503        49.79162         2.77298
O         38.33802        29.17844         0.82065
H         38.84025        28.39929         1.16214
O         38.92235        43.50230         2.08405
H         38.94796        44.30068         2.65032
O         28.89890        39.66756        -2.52078
H         29.46077        38.93228        -2.93808
O         42.05535        23.64915         0.40378
H         42.80575        23.74269         1.03705
O         51.77705        26.64730         1.20653
H         51.93031        27.27661         1.95327
O         60.48817        44.53479        -2.51292
H         59.75876        45.05551        -2.92951
O         36.11880        25.41464        -2.64756
H         36.06532        24.52102        -3.05112
O         46.11162        54.64562         1.85738
H         46.65877        55.06897         2.55235
O         44.18915        44.03633         1.70945
H         44.00078        44.98323         1.93143
O         52.32258        27.10325        -2.34507
H         51.85858        26.74931        -3.13176
O         46.88266        22.08531         0.72319
H         46.08332        22.26588         1.27699
O         24.75297        36.96260        -2.06621
H         25.04807        37.73931        -2.59519
O         38.41278        37.06999         1.42515
H         37.70592        36.56234         1.88770
O         33.07754        37.20808        -2.42273
H         32.15171        37.23686        -2.82506
O         46.42069        34.84506         0.36012
H         46.11643        35.61909         0.88192
O         47.38412        31.70170         0.38103
H         47.40661        30.78230         0.71962
O         43.26286        35.78467         0.89938
H         42.83791        34.95942         1.23371
H         23.40858        23.22934         2.18898
H         21.30761        24.35488         1.65387
H         21.18734        26.77832         1.32825
H         21.10984        28.59980         0.95586
H         20.95664        30.99232         0.50747
H         20.84880        33.03318         0.91172
H         20.78338        35.43811         0.63147
H         20.83986        37.32833         0.97459
H         20.81944        39.76974         1.07173
H         20.80123        41.73957         1.24151
H         20.91208        44.13344         1.51973
H         20.87814        46.04807         1.10858
H         23.07587        49.68960         1.65321
H         20.93544        48.49676         1.44992
H         25.04362        22.35248         2.46567
H         24.70154        50.60580         1.82376
H         27.08108        21.24174         1.87092
H         26.77906        51.84061         1.67331
H         30.56470        19.15892         0.65540
H         28.64524        20.33073         1.54267
H         30.20897        54.18535         0.52791
H         28.32733        52.90652         1.33379
H         31.68190        18.42762        -0.67592
H         31.92993        55.08352         0.80199
H         33.40997        17.33035        -2.06949
H         34.01932        56.29734         0.79387
H         37.79128        14.77958        -0.75573
H         35.96553        15.76470        -2.09295
H         37.72009        58.33727         1.41517
H         35.64726        57.11864         1.18450
H         39.10654        14.07043         0.36620
H         39.36845        58.41527         2.62926
H         43.32621        14.11560         1.09822
H         41.16138        12.92868         1.09395
H         43.65103        58.76172         2.31782
H         41.53413        59.26194         3.49682
H         45.01338        15.02966         0.94474
H         45.26332        58.44412         1.12750
H         47.12426        16.14091         0.50726
H         47.40619        57.27452         0.86608
H         50.70540        18.43919         0.62550
H         48.78420        17.07688         0.21094
H         51.06120        54.84637         1.42590
H         48.91757        55.99632         1.62647
H         52.32250        19.38345         0.78557
H         52.80006        54.17532         0.67877
H         54.35264        20.56975         1.03214
H         54.92974        53.02198         0.54592
H         57.46247        22.38607         2.79285
H         55.87414        21.33466         1.37307
H         58.59025        51.14402        -1.25856
H         56.49731        52.28929        -0.69455
H         58.24623        23.45708         4.55908
H         60.36208        50.17661        -0.90820
H         59.32149        24.85297         6.31450
H         59.83594        27.24254         5.91929
H         60.81902        29.00634         4.94683
H         61.09425        31.39976         4.53394
H         61.11929        33.39367         4.28553
H         61.19572        35.82530         3.89341
H         62.09411        38.17634         1.44495
H         62.38955        40.18874         0.19260
H         62.35055        42.20591         0.29416
H         62.44166        44.56789        -0.24652
H         62.48116        46.44243        -0.57664
H         62.46678        48.90652        -0.66990
