         618
 CSIRO Nanostructure Databank - Neutral Graphene Oxide Data Set
C         22.95667        69.97798        -1.09550
C         22.95035        71.38373        -1.09926
C         21.73157        72.13063        -1.15449
C         22.97317        74.21914        -1.10827
C         21.75347        73.51152        -1.16379
C         25.40846        65.68700        -0.91500
C         25.38059        67.12608        -0.92975
C         24.18323        67.83249        -1.01863
C         25.41136        69.97353        -0.96880
C         24.16639        69.25605        -1.02159
C         25.41031        71.38408        -1.03558
C         24.19698        72.09537        -1.07723
C         25.43789        74.24073        -0.93194
C         24.19566        73.53944        -1.06691
C         27.88842        61.30657        -0.83530
C         27.79283        62.75629        -1.03104
C         26.49938        63.46986        -0.67906
C         27.84481        65.67754        -0.70658
C         26.57897        64.97728        -0.81946
C         27.84131        67.10375        -0.63577
C         26.62478        67.83805        -0.79412
C         27.88269        69.96074        -0.61781
C         26.64398        69.24918        -0.81958
C         27.90804        71.38940        -0.69026
C         26.71182        72.11086        -1.26094
C         27.87784        74.25141        -0.67570
C         26.65961        73.57720        -0.90525
C         30.38141        57.07787        -0.65248
C         30.31829        58.48490        -0.60339
C         29.13849        59.20605        -0.80992
C         30.36286        61.39793        -0.81440
C         29.10507        60.64041        -0.82922
C         30.34294        62.78451        -0.84307
C         29.09171        63.53848        -1.00541
C         30.28977        65.67069        -0.40051
C         29.07624        64.98211        -0.67714
C         30.24862        67.07025        -0.18773
C         29.05711        67.80634        -0.38828
C         30.29273        69.95750        -0.05271
C         29.06742        69.24432        -0.33519
C         30.29370        71.40585        -0.08519
C         29.08370        72.10028        -0.43737
C         30.31499        74.24006        -0.33906
C         29.09311        73.55315        -0.50451
C         32.85747        52.79307        -0.60554
C         32.82925        54.19921        -0.47264
C         31.62103        54.93811        -0.59079
C         32.82402        57.03304        -0.17931
C         31.58901        56.34083        -0.47079
C         32.81205        58.50363         0.01294
C         31.53168        59.25449        -0.23430
C         32.83057        61.34992        -0.51140
C         31.60678        60.69226        -0.57469
C         32.89939        62.79911        -0.76502
C         31.58874        63.56477        -0.86337
C         32.77387        65.63680        -0.20479
C         31.57282        64.98600        -0.44817
C         32.78690        67.04512         0.24349
C         31.45176        67.78728         0.24315
C         32.72599        69.92184         0.55928
C         31.46738        69.24980         0.20522
C         32.71662        71.45438         0.53211
C         31.47683        72.13035         0.12367
C         32.75519        74.24326         0.07305
C         31.51023        73.55189        -0.06867
C         35.36808        48.53935        -1.12452
C         35.32483        49.95051        -0.89386
C         34.10984        50.66100        -0.79393
C         35.30643        52.78173        -0.36355
C         34.07014        52.06250        -0.57118
C         35.26816        54.18735        -0.12189
C         34.06119        54.90694        -0.20408
C         35.23861        57.09987         0.32333
C         34.01327        56.33994        -0.04274
C         35.29248        58.56052         0.08207
C         34.08564        59.25136        -0.07899
C         35.30621        61.37524        -0.18427
C         34.07334        60.66150        -0.23266
C         35.32224        62.81642        -0.25586
C         34.11751        63.53740        -0.40479
C         35.25034        65.69512        -0.13213
C         34.05907        64.96136        -0.27439
C         35.26694        67.13234         0.01541
C         34.02967        67.83834         0.14439
C         35.22894        69.99087         0.23287
C         34.01849        69.22987         0.32930
C         35.19884        71.42362         0.26936
C         34.00111        72.15493         0.35598
C         35.21153        74.40697         0.43617
C         33.95991        73.58116         0.24646
C         37.92188        44.33109        -1.00972
C         37.98529        45.73592        -1.12098
C         36.78567        46.46853        -1.39751
C         37.72579        48.75843        -1.53804
C         36.59057        47.88898        -1.39849
C         37.81177        50.03426        -1.03092
C         36.56014        50.69514        -0.74275
C         37.84292        52.80626        -0.63212
C         36.53397        52.07198        -0.46854
C         37.82790        54.20046        -0.03900
C         36.53022        54.87790         0.23737
C         37.80242        57.11826         0.30832
C         36.53404        56.36338         0.43247
C         37.77539        58.55020         0.29883
C         36.53096        59.25554         0.13043
C         37.77872        61.39752         0.03896
C         36.53694        60.67851        -0.00518
C         37.78877        62.82635        -0.09680
C         36.56613        63.51463        -0.23360
C         37.81635        65.73177        -0.15900
C         36.51844        64.97954        -0.35048
C         37.71572        67.09316         0.52126
C         36.47397        67.85451         0.14148
C         37.74305        69.96578         0.08248
C         36.49046        69.28082         0.14562
C         37.74537        71.42260        -0.16736
C         36.44214        72.17620        -0.02294
C         37.68376        74.27425         0.50027
C         36.50073        73.62437         0.31272
C         40.29487        39.96596        -0.85837
C         40.24054        41.39377        -0.65280
C         39.05196        42.13656        -0.77850
C         40.23684        44.19504        -0.14125
C         39.05574        43.54985        -0.64140
C         40.30478        45.63400        -0.09826
C         39.26522        46.34468        -0.76291
C         40.55535        48.43282        -0.45546
C         39.56970        47.67054        -1.08701
C         40.49679        49.91923        -0.54907
C         39.11532        50.58331        -0.49778
C         40.28242        52.77221         0.30126
C         39.04652        52.01769        -0.10057
C         40.26706        54.27040         0.35186
C         39.09123        55.01840        -0.24372
C         40.24115        57.10449         0.52864
C         39.01660        56.43322         0.27547
C         40.23025        58.54556         0.56365
C         38.99888        59.26676         0.33189
C         40.24963        61.41268         0.19037
C         39.00424        60.69498         0.21065
C         40.29881        62.81041         0.09661
C         39.04812        63.55123        -0.01435
C         40.28318        65.71360         0.13332
C         39.03303        64.93994         0.04512
C         40.23499        67.09227         0.77663
C         38.99099        67.88491         0.42081
C         40.34769        69.94895         0.02577
C         38.98671        69.25067         0.21842
C         40.32303        71.48242         0.08950
C         39.02185        72.21323        -0.03866
C         40.14973        74.31722         0.62421
C         38.97666        73.63114         0.40911
C         42.71641        35.66650        -1.08908
C         42.69033        37.07436        -0.93760
C         41.50401        37.80608        -0.91375
C         42.74857        39.91517        -0.55786
C         41.47812        39.23330        -0.78052
C         42.75693        41.42853        -0.58058
C         41.43784        42.08086        -0.29753
C         42.59926        44.07988         0.67089
C         41.41363        43.43323         0.05573
C         42.58207        45.56595         0.93702
C         41.46694        46.33814         0.34776
C         42.78361        48.48192         0.64827
C         41.57938        47.74614         0.23393
C         42.84149        49.90113         0.59394
C         41.68371        50.65417         0.02666
C         42.71884        52.79735         0.72066
C         41.58006        52.08938         0.35293
C         42.72536        54.25326         0.78298
C         41.53774        54.99854         0.49864
C         42.65432        57.05104         1.32505
C         41.46705        56.38660         0.66042
C         42.64884        58.57046         1.17925
C         41.43962        59.23361         0.66294
C         42.84371        61.37193         0.32235
C         41.49746        60.63044         0.24015
C         42.77422        62.83635         0.37627
C         41.57636        63.50398         0.20364
C         42.74274        65.72156         0.77333
C         41.58252        64.98870         0.21234
C         42.74199        67.07596         0.99312
C         41.53874        67.87390         0.53003
C         42.67587        70.05885         1.22105
C         41.35172        69.32194         1.06600
C         42.60371        71.55034         1.09993
C         41.48875        72.20301         0.66117
C         42.62498        74.39850         0.78658
C         41.44740        73.67643         0.68823
C         45.17572        32.87297        -1.42959
C         43.96661        33.56492        -1.39663
C         45.18417        35.64924        -0.86565
C         43.93033        34.96166        -1.15585
C         45.19715        36.99088        -0.56151
C         44.00324        37.79386        -0.96738
C         45.22096        39.90960        -0.36119
C         43.92756        39.21958        -0.54831
C         45.19864        41.35898         0.03616
C         43.90867        42.05450         0.16158
C         45.14499        44.09179         0.72865
C         43.89376        43.35281         0.60898
C         45.09279        45.56301         0.66809
C         43.89904        46.27554         1.29053
C         45.16205        48.45417         1.21112
C         43.94189        47.76289         0.99202
C         45.15845        49.86423         1.43051
C         43.96350        50.60190         1.14956
C         44.78375        52.88706         1.88548
C         43.87638        52.07596         1.21360
C         45.03419        54.26982         1.58840
C         43.92916        54.95058         1.04169
C         45.20686        57.09944         1.37324
C         43.96742        56.43641         0.80360
C         45.23141        58.50371         1.36636
C         43.97372        59.27529         1.19064
C         45.23170        61.39516         1.08631
C         44.04222        60.69123         0.82352
C         45.26185        62.80748         1.00815
C         44.05957        63.54349         0.58182
C         45.14755        65.65090         1.63603
C         44.03780        65.02023         0.82745
C         45.19571        67.14383         1.38079
C         43.99521        67.78940         1.15655
C         45.23348        69.93291         0.80853
C         43.95687        69.27009         1.13371
C         45.29528        71.19298         0.23471
C         43.65996        72.43182         1.73190
C         45.07467        74.23269         0.46664
C         43.90730        73.71853         0.96775
C         46.39653        33.53129        -1.23718
C         47.65430        35.62699        -0.91437
C         46.43769        34.91114        -0.94813
C         47.74653        36.97919        -0.51489
C         46.44584        37.59061         0.06845
C         47.46959        39.79960         0.49910
C         46.40923        39.10813         0.03664
C         47.61098        41.26223         0.36754
C         46.34809        41.94764         0.83361
C         47.62877        44.12679         0.65708
C         46.37440        43.44328         0.69409
C         47.65596        45.52184         0.67789
C         46.40236        46.31017         0.66513
C         47.65256        48.34100         1.24057
C         46.42109        47.71355         1.14031
C         47.72072        49.74627         1.60175
C         46.45063        50.33480         2.16307
C         47.66298        52.61221         1.99933
C         46.62549        51.80909         2.33396
C         47.60338        54.13498         2.28273
C         46.29959        54.90729         1.86630
C         47.57795        57.08180         2.07348
C         46.34538        56.31927         1.75805
C         47.65144        58.52493         1.82089
C         46.43885        59.24889         1.52893
C         47.67045        61.38991         1.43333
C         46.44554        60.66466         1.39490
C         47.70543        62.79322         1.40504
C         46.46112        63.54169         1.29598
C         47.68501        65.67364         1.89335
C         46.45343        64.93011         1.44564
C         47.68970        67.13624         1.47672
C         46.47268        67.84004         1.38422
C         47.70177        69.90913         0.88282
C         46.48447        69.25187         1.10601
C         47.74022        71.33760         0.36630
C         46.43391        72.08313         0.66221
C         47.68682        74.22164         0.38538
C         46.37267        73.50469         0.09334
C         49.01043        37.60541        -0.61805
C         50.29470        39.82220        -0.33607
C         49.36395        38.84818        -0.00697
C         50.23826        41.21275         0.10920
C         48.92821        41.94289         0.27542
C         50.15533        44.13225         0.46141
C         48.92997        43.35461         0.86236
C         50.13974        45.54506         0.45945
C         48.89416        46.23665         0.68964
C         50.08342        48.34989         0.81965
C         48.87675        47.63379         0.91696
C         50.14842        49.75495         1.24915
C         48.89133        50.45321         1.58334
C         50.17303        52.66740         1.46163
C         49.01643        51.89212         2.06127
C         50.18940        54.14618         1.77464
C         48.80268        54.83002         1.55864
C         50.11352        57.05361         1.62203
C         48.91912        56.29565         1.96879
C         50.12051        58.43497         1.78950
C         48.88794        59.17391         1.85571
C         50.21087        61.33542         1.34119
C         48.92180        60.60693         1.45732
C         50.26548        62.84935         1.16206
C         48.93853        63.54322         1.44500
C         50.19850        65.64925         1.43896
C         48.94502        64.92058         1.55688
C         50.17585        67.09720         1.23755
C         48.92833        67.80868         1.25948
C         50.16490        69.90968         0.71328
C         48.93030        69.21153         0.96757
C         50.19234        71.35559         0.59152
C         48.92487        72.09420         0.96363
C         50.15173        74.22839         0.49378
C         48.89026        73.56196         0.57161
C         51.37554        41.98995         0.08311
C         52.55778        44.17083         0.08879
C         51.36381        43.43364         0.22218
C         52.59012        45.58395         0.06740
C         51.33362        46.29282         0.19691
C         52.26783        48.58140        -0.19559
C         51.24050        47.72088         0.29753
C         52.45527        49.92333         0.13602
C         51.38709        50.56633         0.94276
C         52.45566        52.76555         0.50187
C         51.29728        52.04482         0.97476
C         52.42810        54.20920         0.54408
C         51.30121        54.87395         1.04622
C         52.50936        57.04890         0.75007
C         51.17780        56.35291         0.80393
C         52.60572        58.45810         1.17813
C         51.42180        59.16525         1.73744
C         52.67987        61.41051         1.51658
C         51.42955        60.67554         1.95573
C         52.72264        62.79571         1.65599
C         51.40680        63.51829         1.95292
C         52.66084        65.71372         1.47081
C         51.39566        64.97159         1.52372
C         52.63207        67.00061         0.67828
C         51.36417        67.78215         0.93914
C         52.61357        69.82995         0.25273
C         51.36031        69.16998         0.66343
C         52.61055        71.34025         0.11088
C         51.35862        72.06008         0.40217
C         52.61506        74.18296         0.32363
C         51.37662        73.52031         0.43333
C         53.88100        46.22785         0.10534
C         55.06882        48.49990         0.03081
C         54.08270        47.55019        -0.30689
C         54.94422        49.90655        -0.15641
C         53.66823        50.62209        -0.16078
C         54.56623        52.90906        -0.63462
C         53.56714        52.08186        -0.07009
C         54.71741        54.28374        -0.37927
C         53.60359        54.96113         0.13358
C         54.92372        57.09890         0.13099
C         53.64706        56.39590         0.32915
C         54.99225        58.50550         0.33600
C         53.74291        59.24133         0.61450
C         55.09238        61.40787         0.75528
C         53.79681        60.72545         0.85459
C         55.14593        62.80663         1.04717
C         53.94331        63.49738         1.44327
C         55.18955        65.69927         1.14242
C         53.96540        64.96727         1.52645
C         55.16501        67.06023         0.87678
C         53.91721        67.78951         0.76127
C         55.12639        69.90124         0.34861
C         53.90659        69.14523         0.48618
C         55.10207        71.34331         0.21467
C         53.88911        72.05986         0.21092
C         55.08944        74.18938         0.16329
C         53.86638        73.49187         0.24141
C         56.18944        50.62540         0.04897
C         57.44366        52.82452        -0.18985
C         56.44522        51.87061        -0.49243
C         57.32066        54.21324        -0.44986
C         56.01739        54.97097        -0.79955
C         57.30683        57.10635        -0.36179
C         56.07892        56.40705        -0.28985
C         57.37302        58.51538        -0.15580
C         56.18542        59.23494         0.16544
C         57.48857        61.35466         0.25368
C         56.24498        60.67488         0.37797
C         57.54412        62.78056         0.48988
C         56.37721        63.49676         0.89891
C         57.70264        65.69078         0.94720
C         56.46402        64.93426         1.41284
C         57.60793        67.10938         0.52988
C         56.39672        67.79127         0.60065
C         57.58355        69.92757         0.15153
C         56.35555        69.21345         0.36114
C         57.56817        71.36074         0.03906
C         56.33550        72.06307         0.11963
C         57.54588        74.19186        -0.12788
C         56.32362        73.50045         0.05363
C         58.50471        54.95453        -0.45113
C         59.74812        57.06176        -0.69621
C         58.54185        56.37576        -0.55493
C         59.80727        58.48254        -0.62048
C         58.61449        59.20767        -0.29593
C         59.93091        61.27220        -0.23701
C         58.67904        60.61989        -0.09808
C         60.00313        62.70789         0.02355
C         58.77792        63.44636         0.32383
C         59.88054        65.60810        -0.38404
C         58.89463        64.90505         0.49623
C         59.93797        67.07987        -0.30988
C         58.80265        67.78786         0.09613
C         60.01795        69.91614        -0.27688
C         58.79586        69.22472         0.01052
C         60.00558        71.35121        -0.36112
C         58.78235        72.06422        -0.18601
C         59.97967        74.18729        -0.55697
C         58.76833        73.50280        -0.28399
C         61.01487        59.17839        -0.84352
C         62.28326        61.29446        -1.08089
C         61.08989        60.57819        -0.69798
C         62.34559        62.67903        -1.10534
C         61.23275        63.44541        -0.50136
C         62.21804        65.62823        -1.53584
C         61.03535        64.85960        -0.94652
C         62.31514        67.02956        -0.97327
C         61.17837        67.74571        -0.61045
C         62.40613        69.89617        -0.86647
C         61.20948        69.19659        -0.51800
C         62.39640        71.32446        -0.93439
C         61.19988        72.04819        -0.67361
C         62.38565        74.17344        -1.09199
C         61.18930        73.49304        -0.77535
C         63.49234        63.44229        -1.49590
C         64.69382        65.57294        -1.78366
C         63.51259        64.83989        -1.51960
C         64.74545        66.97740        -1.69003
C         63.65992        67.69827        -0.91857
C         64.73017        69.86599        -1.63356
C         63.59099        69.18101        -1.18863
C         64.71979        71.28508        -1.68930
C         63.58880        72.01222        -1.30775
C         64.80590        74.14879        -1.51516
C         63.60641        73.47866        -1.32658
C         65.87431        67.70550        -2.09004
C         67.09298        69.82225        -2.38560
C         65.92729        69.12431        -2.03853
C         67.15526        71.24111        -2.40354
C         65.87404        72.04249        -2.29743
C         67.26367        74.10564        -2.19557
C         66.09669        73.37716        -1.57135
C         68.31879        71.94814        -2.65919
C         68.32187        73.38919        -2.65803
O         55.51067        52.31869        -1.47043
O         53.34469        60.13305        -0.47144
O         36.97704        71.83658        -1.35324
O         43.35288        69.70228         2.47499
O         52.43522        58.57360         2.64836
O         59.82261        65.04199        -1.76356
O         41.47093        50.48357        -1.47369
O         38.77554        50.98859         0.88992
O         58.84630        65.44707         1.86069
O         48.33029        56.65066         3.23727
O         49.70076        60.69455         0.14526
O         32.64197        70.70779         1.79541
O         53.36338        65.61974         2.74167
O         32.04632        67.25446         1.49153
O         32.38090        63.26072        -2.06681
O         48.08838        41.77594        -0.91755
O         61.11367        63.18643         0.91574
O         45.50564        52.37619         2.95936
O         37.26299        65.59328        -1.48966
O         42.35728        60.80633        -0.94909
O         44.22334        37.93742        -2.57511
O         31.97820        58.95685         1.14132
O         44.40552        64.52725        -0.49189
O         43.09779        59.19133         2.44989
O         53.08587        48.04426        -1.18900
O         41.09530        65.58861        -1.08304
O         35.78458        56.74192         1.64402
O         40.80942        69.67816        -1.27079
O         44.06633        72.23041         2.85781
O         48.53774        39.14223         1.11128
O         39.90971        72.05857        -1.19002
O         42.21539        44.62514         2.00215
O         37.30460        54.20645         1.30563
O         28.39246        63.22993        -2.27834
O         52.52608        70.45676        -1.07671
O         45.51394        40.97489        -1.35915
O         39.98360        53.50890         1.55829
O         51.22136        49.95791         2.26514
O         38.87046        48.25101        -2.14612
O         45.58796        46.14038        -0.57148
O         47.76503        54.26313         3.70313
H         47.00609        53.81099         4.12883
O         64.08267        67.58545         0.49695
H         64.92556        68.07943         0.58769
O         38.04731        52.93544        -2.07855
H         37.96571        52.04325        -2.48127
O         44.41273        71.64524        -0.66986
H         43.78132        70.94768        -0.94346
O         49.30557        51.81754         3.48889
H         49.41083        52.75118         3.80231
O         66.47272        73.10185        -0.18614
H         67.35241        72.66819        -0.20545
O         55.98588        55.05970        -2.25290
H         55.96222        54.13499        -2.58741
O         47.91207        71.28102        -1.07390
H         48.78751        70.87800        -1.26295
O         46.36792        72.26666         2.08325
H         46.40274        71.39742         2.53535
O         52.54911        66.54639        -0.71448
H         52.45207        67.33913        -1.28436
O         51.29179        60.85215         3.38808
H         51.90166        60.21001         3.81548
O         40.72920        69.35245         2.36028
H         41.45832        69.47575         3.01588
O         44.79350        65.47120         3.04468
H         45.59184        65.73466         3.56428
O         47.59938        65.71114         3.38131
H         47.97436        64.86856         3.71880
O         51.10396        63.49054         3.36087
H         51.82980        63.95885         3.82663
O         44.08924        46.17644         2.72544
H         43.45591        45.49131         3.05109
O         40.18936        66.78212         2.19340
H         40.18988        67.64544         2.67523
O         35.23062        75.52277        -0.46517
H         35.38960        75.18148        -1.36931
O         45.55189        38.40345        -2.79891
H         45.46119        39.38925        -2.84056
O         50.58177        63.09150        -0.22721
H         50.13288        62.38616        -0.74897
O         46.31363        73.46466        -1.35732
H         46.97215        72.79313        -1.65942
O         48.49517        54.77970         0.15204
H         49.17196        55.32338        -0.33041
O         48.84709        72.01549         2.41045
H         49.50572        72.63956         2.77924
O         37.51509        66.73065         1.93421
H         37.58127        67.54841         2.47061
O         50.47487        54.28605         3.20673
H         51.37152        53.92408         3.37011
O         46.12339        41.61297         2.22505
H         46.84564        42.02393         2.74925
O         50.61264        56.44673        -0.59763
H         51.31660        56.14522        -1.21364
O         65.47901        72.37746        -3.65967
H         65.37377        71.53863        -4.15507
O         43.98358        56.68089        -0.63114
H         44.77928        56.25116        -1.00894
O         43.00565        41.77503        -1.99335
H         43.94530        41.52362        -2.18127
O         39.34700        55.20471        -1.66078
H         39.03204        54.40831        -2.15322
O         26.91481        72.08918        -2.72543
H         26.91909        71.14870        -3.00471
O         46.41837        37.18135         1.46928
H         47.21084        37.58261         1.89170
O         46.30598        49.78040         3.50335
H         45.64755        50.33619         3.97375
O         41.85810        68.02726        -0.86419
H         41.47985        67.26036        -1.37682
O         61.94910        65.83038        -2.95782
H         60.96642        65.81673        -3.05779
O         49.00498        43.12436         2.31814
H         49.24164        43.97567         2.74494
O         26.13551        63.14533         0.67711
H         26.70422        63.65842         1.28700
O         56.53867        64.81810         2.86469
H         57.49749        64.84623         3.09517
O         42.52328        56.72677         2.72206
H         42.76469        57.53657         3.23252
H         22.96349        75.31852        -1.09461
H         25.41260        75.33273        -0.79185
H         27.87407        75.34770        -0.57429
H         30.33243        75.33633        -0.42926
H         32.76283        75.34023        -0.00628
H         35.16449        74.84740         1.47206
H         37.66451        75.34807         0.74321
H         40.10438        75.39783         0.83081
H         42.60519        75.49161         0.64906
H         44.99361        75.22344        -0.01823
H         47.72144        75.29814         0.14697
H         50.16969        75.32320         0.37752
H         52.62822        75.28325         0.32337
H         55.08507        75.28929         0.15337
H         57.53644        75.29028        -0.18894
H         59.96895        75.28495        -0.63318
H         62.38224        75.27333        -1.13217
H         64.83089        75.24955        -1.49269
H         67.30565        75.20407        -2.14819
H         22.00384        69.43031        -1.14563
H         20.77524        71.58919        -1.18874
H         20.80954        74.07320        -1.20429
H         24.45082        65.14744        -0.96954
H         23.23096        67.28576        -1.08579
H         26.95830        60.73790        -0.68736
H         25.67584        63.07606        -1.32811
H         29.46101        56.51932        -0.88206
H         28.19578        58.66177        -0.97218
H         31.91316        52.25358        -0.77341
H         30.68543        54.39655        -0.79653
H         34.43945        47.95550        -1.04171
H         33.16251        50.12358        -0.95159
H         36.98986        43.81183        -1.28036
H         35.86663        45.85907        -1.42403
H         39.35310        39.43566        -1.06717
H         38.12628        41.63093        -1.09177
H         41.76615        35.11540        -1.15709
H         40.54669        37.27154        -1.01522
H         45.17403        31.79351        -1.63750
H         43.02361        33.02905        -1.57779
H         47.33851        32.97026        -1.32172
H         48.57769        35.09975        -1.20239
H         49.77513        37.08238        -1.21642
H         51.09308        39.56584        -1.05054
H         52.34690        41.51261        -0.11769
H         53.50483        43.62234        -0.02630
H         54.72410        45.65450         0.51935
H         56.01787        48.13494         0.45219
H         56.96467        50.13936         0.65952
H         58.39026        52.47440         0.25164
H         59.46221        54.41862        -0.35887
H         60.67891        56.49599        -0.85027
H         61.90879        58.61827        -1.15465
H         63.13287        60.70909        -1.46266
H         64.43264        62.89916        -1.68134
H         65.60466        65.02593        -2.07688
H         66.73502        67.16541        -2.51484
H         68.00384        69.25024        -2.62266
H         69.25662        71.41204        -2.86730
H         69.22355        73.90623        -3.01868
