         334
 CSIRO Nanostructure Databank - Neutral Graphene Oxide Data Set
C         30.46486        57.20672         0.24353
C         30.44407        58.60135         0.53240
C         29.22163        59.27087         0.82361
C         30.40058        61.36927         1.11783
C         29.21405        60.63572         1.10435
C         32.91616        52.96073        -0.34151
C         32.89929        54.38054        -0.23311
C         31.69001        55.09387        -0.06897
C         32.93415        57.21094         0.09552
C         31.67961        56.50015         0.05913
C         32.94914        58.72250         0.09105
C         31.65325        59.34381         0.54872
C         32.86837        61.46557         0.85623
C         31.64351        60.73367         0.84877
C         35.39931        48.67405        -0.74994
C         35.34392        50.11824        -0.80132
C         34.16676        50.82342        -0.60061
C         35.32501        53.01883        -0.68757
C         34.11577        52.26628        -0.53481
C         35.35851        54.41548        -0.51169
C         34.13598        55.10713        -0.24035
C         35.45299        57.16955         0.35343
C         34.12899        56.51665         0.00416
C         35.43109        58.67868         0.41835
C         34.14347        59.30068         0.88725
C         35.30992        61.51311         0.68324
C         34.12720        60.81563         0.79065
C         37.80370        44.36840        -0.85582
C         37.75903        45.80288        -0.99323
C         36.59711        46.54165        -0.90499
C         37.76223        48.72665        -1.57638
C         36.56017        47.97904        -1.00444
C         37.80400        50.17987        -1.15622
C         36.58969        50.83510        -1.00100
C         37.87998        53.05148        -0.93576
C         36.53983        52.29463        -1.06218
C         37.82369        54.48088        -0.57522
C         36.62018        55.14279        -0.52827
C         37.88448        57.35934        -0.26450
C         36.56670        56.65687        -0.55373
C         37.86030        58.73643        -0.00321
C         36.60113        59.38576         0.30993
C         37.70909        61.60784        -0.04604
C         36.64908        60.83763         0.74778
C         40.21167        40.12197         0.21421
C         40.14273        41.62017         0.15873
C         39.01690        42.16706        -0.74144
C         40.24364        44.39953        -0.56103
C         38.98716        43.68432        -0.70236
C         40.28042        45.79060        -0.73058
C         39.05913        46.48970        -1.17863
C         40.30298        48.70139        -0.93498
C         39.08636        47.97779        -1.37704
C         40.29942        50.10235        -0.84287
C         39.05493        50.87914        -0.97367
C         40.27260        52.92738        -0.09837
C         39.06255        52.24175        -0.68885
C         40.25384        54.43576        -0.28238
C         39.09135        55.17398        -0.39895
C         40.34913        57.31861        -0.21658
C         39.10250        56.62245        -0.29883
C         40.36683        58.75133        -0.26937
C         39.15617        59.48976         0.27514
C         40.12718        61.86281         0.37384
C         39.09112        61.01594         0.12221
C         42.63204        35.89093         0.61697
C         42.62244        37.28188         0.40634
C         41.41023        37.99919         0.33458
C         42.65040        40.06339        -0.37660
C         41.37794        39.40377         0.10374
C         42.66614        41.56040        -0.17806
C         41.46935        42.27188        -0.17221
C         42.70875        44.38703        -0.37268
C         41.47286        43.68707        -0.34233
C         42.71689        45.81665        -0.43219
C         41.49644        46.52211        -0.62756
C         42.69673        48.65670        -0.34977
C         41.49531        47.96255        -0.67468
C         42.68606        50.07902        -0.27185
C         41.51697        50.78362        -0.55952
C         42.80724        52.92683        -0.28067
C         41.52890        52.28594        -0.72972
C         42.80870        54.39897        -0.09405
C         41.52503        55.14458        -0.08355
C         42.81760        57.27518        -0.11242
C         41.57155        56.60843        -0.23242
C         42.84024        58.70881        -0.08840
C         41.60635        59.35164        -0.42619
C         42.64621        61.58490         1.03985
C         41.53324        61.43774         0.28106
C         45.06145        33.07984         1.09989
C         43.85644        33.76623         0.94695
C         45.09245        35.87806         0.74935
C         43.84465        35.17019         0.76681
C         45.11499        37.29131         0.55971
C         43.88872        38.00207         0.34440
C         45.14482        40.09039         0.07706
C         43.91060        39.37694         0.09584
C         45.15797        41.51146        -0.14374
C         43.91757        42.24411        -0.23893
C         45.18675        44.36539        -0.32161
C         43.93640        43.65985        -0.30586
C         45.19684        45.78810        -0.24738
C         43.94708        46.52619        -0.27894
C         45.15734        48.65942         0.02751
C         43.92833        47.93301        -0.16988
C         45.18184        50.03421         0.13152
C         43.88698        50.77741         0.32544
C         45.18341        52.97050         0.28922
C         43.95187        52.25107         0.02212
C         45.26643        54.34713         0.17771
C         44.09850        55.11814        -0.38791
C         45.20384        57.25422         0.38336
C         44.04416        56.56773         0.02467
C         45.17174        58.68154         0.62677
C         43.96448        59.43013         0.38641
C         45.07046        61.46590         1.20850
C         43.91813        60.84822         0.80438
C         46.27917        33.76065         1.08447
C         47.54463        35.89295         0.91835
C         46.31384        35.16479         0.91220
C         47.57253        37.26220         0.75646
C         46.35315        37.99011         0.55121
C         47.61624        40.10503         0.19108
C         46.37010        39.40039         0.31083
C         47.61461        41.46623        -0.11644
C         46.39298        42.19556        -0.21059
C         47.63432        44.35592        -0.21818
C         46.41276        43.64438        -0.30189
C         47.64473        45.75621        -0.11258
C         46.42617        46.46427        -0.11263
C         47.64517        48.65321        -0.28715
C         46.44392        47.91442         0.29089
C         47.63402        50.11265         0.11396
C         46.42929        50.75167         0.29489
C         47.64894        52.92833         0.34345
C         46.38364        52.19096         0.78337
C         47.66434        54.36835         0.79407
C         46.44944        55.08542         0.54142
C         47.57585        57.19799         1.05495
C         46.41652        56.50548         0.64374
C         47.58828        58.61251         1.12571
C         46.36360        59.32541         1.01686
C         47.61287        61.44083         0.83466
C         46.38669        60.77409         1.41446
C         48.89151        37.98860         0.88751
C         50.07917        40.06180         0.22495
C         48.88380        39.41176         0.37900
C         50.16851        41.45830        -0.13729
C         48.88621        42.17670        -0.52017
C         50.15086        44.35704        -0.38793
C         48.91326        43.60001         0.06044
C         50.20291        45.79732        -0.13098
C         48.92147        46.46780         0.30610
C         50.12667        48.65162         0.05348
C         48.93655        47.94729         0.03844
C         50.13156        50.06657         0.20286
C         48.90827        50.79681         0.30375
C         50.11417        52.83339         1.07351
C         48.89756        52.15421         0.62283
C         50.09262        54.30590         1.42808
C         48.80868        55.01151         1.22584
C         50.11084        57.21850         1.53196
C         48.76561        56.45354         1.46346
C         50.06919        58.63368         1.12997
C         48.85261        59.31866         1.10287
C         50.03370        61.38061         0.38905
C         48.80755        60.74915         0.77952
C         51.36251        42.12625        -0.13242
C         52.67848        44.34577        -0.19006
C         51.46376        43.57456        -0.42624
C         52.66448        45.74619        -0.19832
C         51.39483        46.46962        -0.19221
C         52.66827        48.64832         0.15033
C         51.41807        47.97205        -0.34846
C         52.67640        50.03000         0.38962
C         51.41256        50.79106         0.24247
C         52.63967        52.93295         1.09165
C         51.40937        52.23865         0.65671
C         52.62326        54.29200         1.27889
C         51.37772        55.06232         1.34511
C         52.61657        57.23404         1.32187
C         51.36519        56.43834         1.38729
C         52.52609        58.63271         0.83843
C         51.31472        59.29530         0.78600
C         52.44719        61.34947        -0.02203
C         51.25078        60.70420         0.39118
C         53.86670        46.49269        -0.02284
C         55.09034        48.61086         0.42299
C         53.88087        47.90018         0.18830
C         55.08342        49.97665         0.70527
C         53.86781        50.69794         0.76235
C         55.11632        52.87886         0.79907
C         53.90608        52.12282         1.29787
C         55.08782        54.26756         0.78864
C         53.96972        54.97122         1.54609
C         55.06003        57.17127         0.57848
C         53.94024        56.50455         1.31146
C         54.99991        58.54996         0.27497
C         53.83368        59.39829         0.76315
C         54.83273        61.32888        -0.49749
C         53.69270        60.71167         0.02370
C         56.37174        50.70691         1.00597
C         57.45787        52.82454         0.15125
C         56.32669        52.15060         0.54633
C         57.45786        54.26117         0.01138
C         56.23602        54.99476         0.34619
C         57.31444        57.00973        -0.59835
C         56.18063        56.39094         0.18453
C         57.30439        58.51164        -0.62768
C         56.11403        59.21782        -0.32466
C         57.20118        61.27393        -1.14832
C         56.06696        60.63278        -0.62385
C         58.62501        54.93632        -0.27510
C         59.77766        57.08929        -0.96011
C         58.67204        56.43995        -0.17028
C         59.66841        58.40655        -1.36887
C         58.44335        59.15904        -1.11857
C         59.54597        61.19829        -1.94339
C         58.40506        60.57032        -1.38963
C         60.77267        59.09828        -1.96809
C         60.70131        60.45694        -2.23523
O         53.49337        57.18802         2.52319
O         50.07786        53.27480         2.47376
O         42.22227        54.71470         1.21408
O         49.34818        56.90120         2.73158
O         51.45954        51.88883        -0.77165
O         50.73675        43.98243        -1.67107
O         41.70281        60.65891        -0.88770
O         37.23815        52.82371        -2.23316
O         54.31009        54.68411         2.88893
O         39.31833        47.07928        -2.52187
O         33.97461        58.92249         2.28614
H         33.08320        59.22748         2.56488
O         44.24846        55.10673        -1.84388
H         45.15300        55.41920        -2.05612
O         37.07687        60.84613         2.15446
H         36.36176        60.42131         2.67614
O         47.52025        48.57983        -1.73872
H         48.34116        48.94658        -2.13110
O         33.17497        59.14732        -1.28637
H         32.46214        58.76491        -1.83945
O         48.91960        46.33781         1.78555
H         48.16498        46.90157         2.10178
O         56.56390        50.72973         2.43220
H         55.75836        51.16315         2.82055
O         49.00559        43.48376         1.50549
H         48.99171        44.40315         1.87471
O         54.09562        52.02547         2.74790
H         54.17847        52.99289         3.05457
O         40.29289        52.67812         1.32794
H         40.98615        53.27243         1.70910
O         36.18092        57.02074        -1.90863
H         36.82043        56.61331        -2.52953
O         39.20997        41.73693        -2.09262
H         40.10279        42.01515        -2.38445
O         58.93273        56.73934         1.23047
H         58.26181        56.27076         1.77200
O         37.36953        61.53967        -1.43650
H         36.39845        61.64339        -1.52139
O         57.13290        56.58003        -1.98809
H         56.30433        56.98424        -2.32011
O         46.62505        47.91538         1.75310
H         45.82655        47.51031         2.15319
O         48.79597        42.24479        -1.96392
H         49.57465        42.76925        -2.27960
O         37.50986        48.78390        -3.01009
H         37.96376        48.00148        -3.40510
O         46.30616        52.14452         2.22349
H         45.43794        51.73812         2.45294
O         35.75596        56.73334         1.70877
H         35.13647        57.21151         2.30706
O         49.95076        37.23674         0.28157
H         49.78685        37.20190        -0.68297
O         47.55263        52.98540        -1.12509
H         48.45365        53.12056        -1.48766
O         39.33835        59.33007         1.73236
H         38.58939        59.82191         2.16115
O         43.68166        50.74934         1.79660
H         43.44739        49.82900         2.04343
O         41.41447        52.56385        -2.15496
H         42.18564        52.16859        -2.61267
O         54.15870        59.77271         2.14027
H         54.09290        58.93976         2.67428
O         39.78453        42.06660         1.50450
H         40.46932        41.73749         2.12353
O         42.64090        39.88752        -1.83911
H         43.50795        40.19707        -2.17777
O         46.58198        60.80688         2.88054
H         47.38073        60.27213         3.08089
O         51.43704        48.17297        -1.81460
H         52.24766        47.73807        -2.15645
H         29.51550        56.65137         0.22743
H         28.28227        58.70015         0.81780
H         30.38363        62.44525         1.34178
H         28.26146        61.14065         1.31863
H         31.96776        52.40720        -0.27452
H         30.73734        54.54431        -0.03938
H         32.83515        62.56275         0.92971
H         34.48656        48.12559        -0.46737
H         33.22812        50.26861        -0.45031
H         35.28779        62.61441         0.65101
H         36.85470        43.81143        -0.89144
H         35.65027        46.01944        -0.69304
H         37.71704        62.68640         0.29067
H         39.28930        39.59720         0.51123
H         38.03432        41.75704        -0.40081
H         39.91268        62.94218         0.47030
H         41.67623        35.34742         0.66124
H         40.46395        37.46974         0.52466
H         42.62451        62.24062         1.92285
H         45.05090        31.98919         1.23594
H         42.90370        33.21769         0.96211
H         45.00801        62.49523         1.59466
H         47.22189        33.20888         1.20871
H         48.48943        35.34925         1.06630
H         47.59277        62.51658         0.60364
H         49.13568        38.03054         1.98836
H         51.01262        39.51175         0.42188
H         50.01089        62.44305         0.10322
H         52.28527        41.59422         0.14803
H         53.61331        43.81329         0.04036
H         52.38264        62.36747        -0.43682
H         54.82185        45.94771         0.01127
H         56.04600        48.06587         0.40072
H         54.75911        62.35361        -0.89336
H         57.24415        50.17186         0.55360
H         58.40574        52.28356         0.01045
H         57.14750        62.34615        -1.38875
H         59.56297        54.37496        -0.41028
H         60.73699        56.55951        -1.06786
H         59.51652        62.27575        -2.15963
H         61.69528        58.54023        -2.18284
H         61.56840        60.96794        -2.67750
