         762
 CSIRO Nanostructure Databank - Neutral Graphene Oxide Data Set
C         23.47745        24.05980         1.03585
C         22.39336        24.60311         0.28419
C         23.44101        26.82522         0.21742
C         22.40690        25.88031        -0.19999
C         23.65119        28.12011        -0.45582
C         22.64280        28.68592        -1.33025
C         23.60318        30.91035        -1.02883
C         22.62649        29.99994        -1.67473
C         23.58645        32.41527        -1.14060
C         22.65778        33.05062        -2.10040
C         24.22063        34.91364        -2.51171
C         22.98324        34.17736        -2.76827
C         24.52679        36.13593        -3.26993
C         23.77555        36.52427        -4.39840
C         25.07452        38.56923        -4.65042
C         24.05101        37.71580        -5.07326
C         25.26355        39.90433        -5.28764
C         25.10312        40.06785        -6.73906
C         26.28980        42.23136        -6.70369
C         25.53054        41.19021        -7.36952
C         26.69634        43.42069        -7.40969
C         26.21468        43.70132        -8.71533
C         27.37703        45.82145        -8.73043
C         26.56439        44.87139        -9.36561
C         25.81385        22.85587         2.32661
C         25.84203        24.16970         1.81774
C         24.63531        24.77705         1.28427
C         25.95541        26.90729         0.89503
C         24.65849        26.21901         1.00140
C         25.99516        28.19827         0.34792
C         24.83671        28.82183        -0.21581
C         26.07097        31.08101        -0.28506
C         24.89653        30.23993        -0.68009
C         26.02428        32.54790        -0.27116
C         24.74859        33.28811        -0.63732
C         26.19487        35.29715        -1.03813
C         25.06242        34.47480        -1.52168
C         26.45088        36.61827        -1.72928
C         25.60970        36.95838        -2.88233
C         26.91578        39.03906        -3.02941
C         25.88843        38.17948        -3.54942
C         26.84438        40.47286        -3.33722
C         26.12732        40.92349        -4.57996
C         27.61733        42.94148        -4.76275
C         26.69770        42.04096        -5.37064
C         28.06926        44.06330        -5.46650
C         27.56609        44.36225        -6.77385
C         28.65278        46.63799        -6.76934
C         27.87599        45.60055        -7.44282
C         28.78558        47.93396        -7.21233
C         28.19992        22.92710         2.82391
C         26.95712        22.25254         2.81936
C         28.25705        24.27007         2.36269
C         27.07351        24.90057         1.85488
C         28.39871        26.94624         1.37879
C         27.13666        26.24060         1.35568
C         28.45172        28.27762         0.94967
C         27.32645        28.89084         0.16148
C         28.29232        31.21455         0.95441
C         27.15993        30.38513         0.46241
C         28.30203        32.66988         0.72135
C         27.17186        33.28712         0.09369
C         28.47695        35.37393        -0.03154
C         27.30109        34.66216        -0.29841
C         28.87855        36.53047        -0.93533
C         27.74437        37.29310        -1.56255
C         29.01300        39.43589        -1.68409
C         27.90699        38.56842        -2.11765
C         28.98588        40.79300        -1.91887
C         27.86278        41.37139        -2.71201
C         29.09970        43.56743        -2.73176
C         28.04441        42.71960        -3.34708
C         29.56470        44.73999        -3.48499
C         29.09055        44.95043        -4.86645
C         29.85169        47.38001        -4.66245
C         29.38401        46.26123        -5.54046
C         30.13765        48.68672        -5.29153
C         29.58624        48.91406        -6.52928
C         30.58900        20.20066         3.85327
C         29.40317        20.88932         3.61524
C         30.65735        22.94701         3.22402
C         29.41114        22.24351         3.23598
C         30.71164        24.30751         2.82597
C         29.52106        24.97396         2.35293
C         30.93171        26.91672         1.58920
C         29.58381        26.28291         1.85061
C         30.89813        28.43301         1.61482
C         29.69625        29.05501         1.04966
C         30.71212        31.34713         1.69071
C         29.62830        30.57187         1.06789
C         30.56186        32.79727         1.79535
C         29.40185        33.43021         1.15584
C         30.41910        35.71521         1.49145
C         29.44979        34.81731         0.83841
C         30.58780        37.06848         0.91686
C         30.00800        37.42074        -0.40844
C         30.96741        39.82775        -0.09283
C         30.11519        38.86860        -0.86206
C         30.88854        41.17408        -0.29777
C         29.95384        41.70528        -1.30030
C         30.85611        44.03122        -0.99577
C         29.94398        43.04603        -1.62774
C         31.17515        45.27243        -1.71771
C         30.42115        45.63725        -2.87169
C         31.16526        48.07529        -2.50324
C         30.39195        47.05181        -3.31201
C         31.57599        49.28831        -3.31707
C         30.95203        49.64211        -4.53737
C         31.90196        51.87837        -4.34022
C         31.15618        50.94339        -5.04769
C         33.08776        18.67630         3.52297
C         33.08513        20.09643         3.82546
C         31.83168        20.85081         3.78788
C         33.09538        22.98758         3.68857
C         31.86591        22.25893         3.57183
C         33.16284        24.35236         3.40078
C         31.96739        25.01684         2.89459
C         33.30210        27.05323         2.46800
C         32.03472        26.32398         2.42433
C         33.28467        28.54415         2.21319
C         31.98407        29.21822         1.93279
C         32.93520        31.42383         2.72221
C         31.87640        30.66918         2.02433
C         32.75699        32.93067         2.91009
C         31.59107        33.57931         2.30538
C         32.85074        35.79279         2.64433
C         31.57103        35.05915         2.34448
C         32.84082        37.15928         2.80698
C         31.24893        38.04850         1.59645
C         32.73645        40.10469         1.82951
C         31.95012        39.18498         0.87676
C         32.69173        41.57858         1.54966
C         31.50122        42.15450         0.71726
C         33.04877        44.30127         0.28247
C         31.76952        43.57197         0.13710
C         33.15658        45.60996        -0.26643
C         32.17853        46.13322        -1.20936
C         33.28775        48.33927        -1.22107
C         32.28752        47.46456        -1.69556
C         33.29388        49.70987        -1.59589
C         32.46063        50.19726        -2.66231
C         33.38968        52.53953        -2.44378
C         32.56186        51.53471        -3.15281
C         33.71720        53.83195        -3.07652
C         35.55057        18.55305         3.59716
C         34.22727        17.95956         3.34998
C         35.55529        20.04177         3.86925
C         34.27941        20.77322         3.93708
C         35.61221        22.97383         4.25565
C         34.30041        22.24481         4.12606
C         35.64608        24.43739         3.93840
C         34.41392        25.09311         3.53205
C         35.59296        27.26002         3.47569
C         34.45345        26.44248         3.15874
C         35.54382        28.65778         3.39854
C         34.45233        29.34686         2.69848
C         35.24921        31.60845         3.66418
C         34.30993        30.83768         2.82775
C         34.91735        32.89881         3.97799
C         33.95555        33.72093         3.27546
C         35.31626        35.88693         3.28864
C         34.07468        35.09660         3.06424
C         35.33199        37.33368         3.01059
C         34.02893        38.01558         2.93568
C         35.25768        40.18440         2.31535
C         33.96913        39.48789         2.49692
C         35.22519        41.71588         2.40595
C         33.87730        42.50147         1.92488
C         35.29700        44.45025         1.22163
C         34.14554        43.68742         0.98086
C         35.30396        45.89714         0.94785
C         34.25713        46.45681         0.07466
C         35.51564        48.58462        -0.17586
C         34.33674        47.79251        -0.37318
C         35.54326        49.94847        -0.56516
C         34.21015        50.62041        -0.80045
C         35.59015        52.78023        -1.20089
C         34.31742        52.04620        -1.34410
C         35.66635        54.15682        -1.62129
C         34.68085        54.63771        -2.56616
C         37.38303        16.20098         1.31292
C         36.62676        16.60585         2.35927
C         37.64015        18.89632         2.17739
C         36.85272        17.92357         3.04629
C         37.65597        20.27173         2.54457
C         36.72007        20.82533         3.41086
C         38.12759        22.96316         3.74740
C         36.86801        22.19191         3.97112
C         38.20218        24.43123         4.22993
C         36.83738        25.15462         4.03737
C         37.82733        27.42865         4.40277
C         36.77080        26.59858         4.00749
C         37.91398        28.82997         4.15448
C         36.59180        29.48599         4.06127
C         37.79399        31.75005         4.35869
C         36.47918        30.97422         4.22617
C         37.82450        33.21443         4.02930
C         36.70906        34.00257         4.22372
C         37.80848        36.10795         3.80189
C         36.53326        35.32503         3.67392
C         37.78777        37.46448         3.15889
C         36.50093        38.09961         2.91086
C         37.70788        40.29492         2.57064
C         36.45589        39.52570         2.56286
C         37.76234        41.64427         2.27636
C         36.49568        42.30247         1.74324
C         37.79907        44.57347         1.91631
C         36.46334        43.82152         1.86861
C         37.87029        45.95743         1.37260
C         36.61050        46.68912         1.08642
C         37.91244        48.64948         0.30118
C         36.70988        47.98588         0.37158
C         38.01002        49.94971        -0.39011
C         36.73988        50.68460        -0.59139
C         38.03195        52.84632        -0.89295
C         36.75391        52.08305        -0.85272
C         37.92795        54.30876        -0.52532
C         36.77590        54.94958        -1.26863
C         37.95405        57.07990        -1.16325
C         36.82623        56.35302        -1.47390
C         39.09221        15.25950        -0.89554
C         39.23489        16.56440        -0.34794
C         38.40047        17.03802         0.72080
C         39.51583        19.22813         0.57966
C         38.51617        18.38861         1.16563
C         39.56949        20.65745         0.89303
C         38.59561        21.21531         1.88359
C         40.14219        23.25575         2.13739
C         38.89942        22.54033         2.51835
C         40.27054        24.59702         2.59129
C         39.36169        25.15394         3.53344
C         40.42251        27.38157         3.21918
C         39.63169        26.44825         3.94545
C         40.34259        28.82716         3.50248
C         39.13426        29.49562         4.00282
C         40.30588        31.76208         3.75712
C         39.10884        30.98206         4.15199
C         40.26976        33.13392         3.53837
C         39.04016        33.89693         3.62194
C         40.27281        36.02641         3.32934
C         39.04693        35.28642         3.48747
C         40.26064        37.45060         3.29170
C         38.98148        38.15314         3.16382
C         40.21212        40.39493         3.17543
C         38.92318        39.63037         3.09461
C         40.27913        41.75107         2.59459
C         39.02358        42.39483         2.27449
C         40.29731        44.44439         1.67060
C         39.02853        43.76451         1.96373
C         40.32122        45.93491         1.62874
C         39.06676        46.59353         1.19586
C         40.45045        48.73221         0.72935
C         39.12606        48.03994         0.86624
C         40.54555        50.10304         0.15420
C         39.33989        50.67076        -0.48748
C         40.53007        52.93932        -0.30460
C         39.34026        52.15149        -0.71531
C         40.48719        54.35717        -0.41700
C         39.24372        55.05383        -0.66524
C         40.40499        57.23708        -0.66225
C         39.19468        56.44351        -0.80552
C         40.39620        58.61507        -0.56475
C         40.76792        15.65872        -2.60708
C         39.85036        14.82991        -1.99858
C         41.02035        16.98214        -2.05219
C         40.24242        17.42133        -0.88405
C         41.68817        19.45484        -0.61327
C         40.45023        18.72372        -0.35321
C         41.97497        20.64910         0.00889
C         40.87265        21.40554         0.62313
C         42.30849        23.42582         1.01200
C         41.12073        22.69201         1.31645
C         42.37566        24.78142         1.33237
C         41.33154        25.40781         2.07785
C         42.23178        27.70122         1.53014
C         41.32618        26.82196         2.29902
C         42.36455        29.11292         2.06608
C         41.43295        29.59595         3.11027
C         42.85126        31.72844         3.43331
C         41.56248        30.99255         3.59040
C         42.72623        33.21714         3.46761
C         41.50006        33.88266         3.36099
C         42.74426        36.03734         3.21959
C         41.50835        35.31452         3.29237
C         42.72623        37.45544         3.26299
C         41.50026        38.15623         3.31574
C         42.77775        40.40122         3.36908
C         41.48620        39.64003         3.43755
C         42.77261        41.79011         2.84746
C         41.53569        42.39440         2.49043
C         42.87752        44.52780         1.98744
C         41.61141        43.74468         1.91099
C         42.90849        45.84364         1.57725
C         41.65150        46.61931         1.47977
C         42.92280        48.72384         1.06783
C         41.71355        47.89747         0.66147
C         42.90981        50.21396         0.89422
C         41.68716        50.84338         0.32440
C         42.93620        53.01018         0.19941
C         41.72379        52.27581         0.03882
C         42.93020        54.41623        -0.02864
C         41.71026        55.07502        -0.33669
C         42.95734        57.33657        -0.25813
C         41.68963        56.51977        -0.61230
C         42.74753        58.73908         0.09382
C         41.55059        59.34767        -0.15479
C         43.43646        17.03003        -3.08359
C         42.37682        17.67815        -2.28715
C         44.17705        19.29692        -1.35235
C         42.78952        18.70223        -1.27359
C         44.35468        20.71716        -0.93977
C         43.33036        21.25983        -0.01397
C         44.59169        23.49178        -0.16062
C         43.48312        22.71359         0.42979
C         44.66391        24.93592         0.16571
C         43.55384        25.59000         0.93043
C         44.64360        27.83696         0.62521
C         43.31708        27.07801         0.62231
C         44.74793        29.12848         1.08970
C         43.62903        29.86710         1.75771
C         45.30821        31.69437         2.45546
C         43.91480        31.14729         2.50753
C         45.63618        32.91423         3.06559
C         43.88288        33.98971         3.64717
C         45.29919        35.96985         3.07169
C         44.00268        35.34062         3.31270
C         45.30041        37.38629         2.98784
C         44.05006        38.12811         3.34521
C         45.27022        40.35284         2.90700
C         44.06360        39.62998         3.33113
C         45.25387        41.72542         2.85136
C         44.01457        42.47358         2.72500
C         45.32056        44.60689         2.42086
C         44.09233        43.84885         2.35560
C         45.40535        45.91020         1.93347
C         44.22439        46.44864         1.13372
C         45.46357        48.78152         1.23942
C         44.22571        47.98477         1.00325
C         45.40786        50.28099         1.22353
C         44.19189        50.95567         0.82459
C         45.40797        53.08312         0.50675
C         44.17460        52.32861         0.53552
C         45.40183        54.46264         0.32770
C         44.15739        55.17873         0.14512
C         45.34713        57.30778         0.49810
C         44.14753        56.57908         0.18305
C         44.68026        17.53360        -3.13858
C         46.30694        19.53381        -2.79121
C         45.13744        18.69301        -2.33665
C         46.59158        20.88409        -2.10721
C         45.40265        21.49888        -1.37258
C         46.66750        23.71150        -1.49541
C         45.52713        22.90970        -1.00185
C         46.77693        25.09178        -1.18582
C         45.51806        25.82028        -0.73365
C         46.92732        27.82302        -0.32912
C         45.74274        27.18501        -0.09997
C         47.08849        29.23276         0.08106
C         45.96023        29.92734         0.78752
C         47.46939        31.85705         1.36038
C         46.25344        31.17119         1.54646
C         47.62282        33.20795         1.78032
C         46.57832        33.81798         2.53450
C         47.67708        35.98273         2.35193
C         46.50632        35.25106         2.71725
C         47.70817        37.39962         2.49877
C         46.49462        38.09729         2.74969
C         47.79494        40.30073         2.49278
C         46.49000        39.57534         2.61513
C         47.83773        41.74324         2.90757
C         46.52684        42.46102         3.03684
C         47.84690        44.66883         3.07749
C         46.52022        43.95711         3.01573
C         47.85782        46.18277         2.80692
C         46.60540        46.70977         2.07548
C         47.86058        48.85731         2.06493
C         46.64963        48.05125         1.74297
C         47.80695        50.35809         1.86723
C         46.59318        50.98448         1.29611
C         47.99815        53.07662         0.68148
C         46.67273        52.33595         0.70029
C         48.00785        54.55114         0.42191
C         46.65869        55.25244         0.25886
C         46.55645        56.69401         0.52076
C         47.33392        20.28774        -4.90050
C         46.79474        19.29481        -4.16633
C         47.62320        21.58152        -4.30829
C         47.27205        21.88143        -3.01805
C         48.73849        23.91153        -2.86558
C         47.61086        23.16795        -2.41035
C         48.96272        25.22956        -2.34504
C         47.92152        25.81263        -1.56099
C         49.37588        27.81952        -1.06583
C         47.93743        27.32006        -1.34027
C         49.49280        29.27652        -0.70567
C         48.47476        29.77653         0.23592
C         49.83329        31.91625         0.40036
C         48.62997        31.16022         0.77257
C         50.06919        33.23754         1.09191
C         48.80084        33.95665         1.50648
C         50.09357        36.05088         1.64999
C         48.84835        35.31500         1.82789
C         50.15993        37.40141         2.14862
C         48.98702        38.07151         2.46634
C         50.33582        40.27169         2.77313
C         49.04381        39.52218         2.75240
C         50.27707        41.70168         2.22457
C         49.09447        42.51787         2.72772
C         50.42219        44.64007         3.03615
C         49.11130        43.87083         2.89453
C         50.41298        45.94575         2.22136
C         49.11010        46.69192         2.10345
C         50.37383        48.82913         1.87385
C         49.17367        48.16510         2.00095
C         50.40186        50.31398         1.88821
C         49.11090        51.10261         1.84203
C         50.35901        53.21009         1.47409
C         49.17906        52.49060         1.35073
C         50.32497        54.65128         1.27041
C         49.21452        55.29228         0.84347
C         48.79341        22.57689        -6.40987
C         48.70728        22.36468        -4.95034
C         50.46910        24.08639        -4.79941
C         49.44039        23.33654        -4.06099
C         51.00747        25.83010        -3.75863
C         50.05448        26.14412        -2.76977
C         51.04250        28.43515        -2.88314
C         50.19550        27.46850        -2.27373
C         51.38556        29.73982        -2.23646
C         50.58123        30.04739        -1.02064
C         52.20694        31.88363        -0.27282
C         50.79145        31.34611        -0.39341
C         52.21366        33.40571        -0.10185
C         50.93611        34.16315         0.21933
C         52.46745        36.08712         0.96747
C         51.18992        35.45993         0.99002
C         52.66759        37.36079         1.68601
C         51.49503        38.03799         2.32979
C         52.77666        40.22986         1.97111
C         51.67542        39.51748         2.74604
C         52.76544        41.64620         2.00241
C         51.60843        42.37880         2.32706
C         52.93626        44.55068         2.44460
C         51.67515        43.79693         2.73029
C         52.92481        46.05400         2.42748
C         51.65358        46.74833         2.16674
C         52.90966        48.83366         1.72425
C         51.64656        48.11467         1.90871
C         52.92516        50.29269         1.42217
C         51.62215        51.04694         1.44787
C         52.84786        53.15379         1.76406
C         51.62673        52.51641         1.64941
C         49.61576        23.50879        -6.96587
C         51.57193        25.21209        -6.76200
C         50.54709        24.26562        -6.15107
C         51.80338        26.49833        -6.00075
C         51.52339        26.81575        -4.64991
C         53.26816        29.48249        -4.79994
C         51.51429        28.15696        -4.16994
C         53.66213        30.12168        -3.62730
C         52.69379        30.50918        -2.52858
C         54.70741        31.81337        -1.42512
C         53.24383        31.32117        -1.34611
C         55.10989        33.01802        -0.64368
C         53.37824        33.98175         0.29373
C         54.92569        35.96686         0.38175
C         53.60048        35.39264         0.50474
C         55.10761        37.29872         1.06357
C         53.91806        38.10624         1.43164
C         55.22509        40.21153         1.37408
C         53.96175        39.49262         1.59244
C         55.24961        41.62568         1.38835
C         53.98024        42.37831         1.54317
C         55.32510        44.58803         1.56684
C         54.03451        43.86899         1.68837
C         55.40312        45.96064         1.68226
C         54.20681        46.76029         2.06887
C         55.37834        48.90287         1.39229
C         54.11304        48.17447         1.67462
C         55.42418        50.35078         1.67675
C         54.16583        51.06779         1.65318
C         54.07867        52.44439         1.78624
C         54.19573        25.18478        -6.66803
C         52.96748        24.59877        -6.80494
C         54.63938        26.52900        -6.35704
C         53.79393        27.64676        -6.31307
C         55.62918        29.28424        -5.88235
C         54.17225        28.87761        -5.73450
C         55.96598        30.37822        -4.85977
C         55.00214        30.76906        -3.75954
C         56.70714        32.46518        -2.90625
C         55.67293        31.37744        -2.54344
C         56.88833        33.71898        -2.10840
C         55.90691        34.06737        -1.03682
C         57.30706        36.05045        -0.42043
C         55.96569        35.37528        -0.35093
C         57.45253        37.46658         0.06006
C         56.41852        38.02533         0.99329
C         57.65997        40.20357         1.02991
C         56.43560        39.51005         1.14194
C         57.68486        41.60712         1.16877
C         56.46845        42.32098         1.27036
C         57.84334        44.53136         1.23341
C         56.49941        43.80329         1.17220
C         57.86012        45.96666         1.53365
C         56.65812        46.65614         1.56889
C         57.93122        48.83664         1.77961
C         56.68488        48.12724         1.44234
C         57.87803        50.21452         1.90732
C         56.66191        50.94872         1.85542
C         56.88949        25.64527        -5.71751
C         56.02904        26.74473        -5.94046
C         57.95397        28.19999        -5.85938
C         56.55136        28.07048        -5.85900
C         58.41461        30.58947        -5.61526
C         57.35029        30.95378        -4.82353
C         58.44729        33.32164        -4.63361
C         57.36812        32.33802        -4.25647
C         58.69881        34.54830        -3.77568
C         57.85743        34.76826        -2.55829
C         59.64349        36.39058        -1.65093
C         58.35407        35.62101        -1.42589
C         59.87994        37.68331        -0.89853
C         58.70918        38.24640        -0.13617
C         60.09429        40.29316         0.31897
C         58.95818        39.41778         0.81383
C         60.30907        41.55004         1.02444
C         58.97850        42.30584         1.38765
C         60.29388        44.41845         1.55319
C         59.07361        43.75750         1.43803
C         60.32796        45.87205         1.75605
C         59.12360        46.63641         1.72943
C         60.39378        48.66810         2.18641
C         59.15495        48.05271         1.92105
C         58.26232        25.81961        -5.57356
C         58.80799        27.09188        -5.72205
C         59.51806        31.49644        -5.88917
C         59.54164        32.77994        -5.46566
C         60.01949        35.22264        -3.82063
C         60.42449        36.07972        -2.86812
C         60.85129        38.68243        -1.36298
C         60.91735        39.92234        -0.75520
C         61.49867        42.38624         0.86087
C         61.50732        43.68786         1.26279
C         61.53916        46.53704         2.02453
C         61.56449        47.91421         2.24601
O         47.23230        41.94371         4.21795
O         41.55955        28.80214         0.87081
O         23.60117        26.95967         1.66727
O         50.47315        45.04660         4.41601
O         33.08959        52.76474        -1.01102
O         28.98724        47.50302        -3.46909
O         38.93593        26.91266         5.06559
O         57.58708        38.43248        -1.05816
O         35.62466        46.70241         2.14405
O         45.04785        48.36184        -0.15027
O         57.17228        44.24795        -0.05184
O         52.44303        27.43101        -6.74030
O         42.10161        40.19929         4.64886
O         52.37175        37.18063         3.12874
O         49.64164        39.99894         4.01838
O         52.19643        50.61611         0.17761
O         43.82382        18.32141        -0.31135
O         29.99902        29.87108        -0.16916
O         36.16132        30.09783         5.35322
O         46.19877        30.13452        -0.66054
O         32.43551        31.96282         3.98284
O         30.60267        44.40021         0.40585
O         60.46726        36.42970        -0.43915
O         32.93092        38.42921         0.20235
O         33.79954        39.10421         3.89430
O         58.64264        29.36672        -6.17646
O         33.67235        27.63036         1.12977
O         42.57461        31.07230         4.70080
O         57.68720        32.50248        -1.80710
O         36.93590        44.40622         3.09590
O         49.61781        45.90549         0.98327
O         38.59853        31.37242         5.49411
O         59.77634        41.59127         2.38523
O         51.50042        24.55244        -3.96133
O         42.72111        49.56058         2.22659
O         47.52453        54.92460        -0.89646
O         57.56226        35.50077        -3.77247
O         54.46408        33.13402         0.58081
O         42.62033        56.97762        -1.63945
O         44.79982        25.24646         1.60629
O         38.86044        49.87706        -1.61585
O         25.72497        36.54999        -0.42770
O         26.53874        41.23856        -2.11020
O         41.02996        43.82650         0.54859
O         51.90999        29.17936        -5.01071
O         30.30012        45.14476        -5.74555
O         44.27767        38.89352         4.58581
O         43.88438        21.59475         1.30050
O         58.33999        35.06064        -0.09086
O         46.49926        18.43957        -1.83906
O         31.63484        37.84866         2.91933
O         53.63521        43.26993         0.40515
O         35.74963        19.06184         4.96044
O         47.58969        49.76200         3.18952
O         41.21839        18.06997        -3.05483
O         39.34046        40.28082         4.35472
O         47.04310        44.46200         4.28837
O         49.85847        50.92256         3.09547
O         27.65170        43.78346        -2.41962
O         32.06761        40.97444         2.74776
O         27.24445        30.72127         1.87697
O         39.74456        48.79411         1.99659
O         44.96304        33.31448         4.21490
O         38.86005        52.55142        -2.05397
O         57.11721        33.37842        -5.25010
O         34.89385        30.28542         1.61064
O         51.42051        30.96065        -3.06403
O         24.67139        40.98114        -4.47442
O         25.92813        30.54526        -1.67470
O         37.94348        22.43143         1.39177
O         34.85245        22.64620         5.45341
O         48.95316        29.93701         1.60886
O         33.42940        43.29205         2.98714
O         43.36845        31.16987         1.13246
O         39.71869        21.49526        -0.28921
O         38.02885        22.09764         4.91725
O         49.90959        21.94133        -4.17244
O         35.65788        33.50685         4.99042
O         56.11676        37.24428         2.16950
O         47.57397        52.29608        -0.48714
O         54.31743        30.64077        -0.64891
O         55.05149        31.54897        -4.99730
O         40.94454        46.62247         2.76402
O         22.96039        31.73589         0.00878
O         30.36534        35.60524         2.94222
O         53.78566        46.59843         3.48114
O         42.81171        27.11592        -0.69733
O         47.07834        39.99440         1.28055
O         56.06601        48.53226         0.15417
O         30.90952        37.78715        -1.49867
O         44.37216        45.94780        -0.24078
H         45.02669        46.54268        -0.68219
O         49.90248        27.08448         0.07054
H         49.81859        27.64012         0.87514
O         50.01037        41.49551         0.79396
H         50.16291        42.34031         0.31903
O         35.30968        41.93134         3.80596
H         34.54769        42.54295         4.03322
O         33.60232        50.73045         0.51992
H         32.86948        51.38296         0.43849
O         44.80127        26.04462        -1.97550
H         43.94626        26.52890        -1.72322
O         29.42675        35.80841        -2.09741
H         30.17511        36.36472        -2.43138
O         31.27414        26.56759         0.19782
H         32.18603        26.92045         0.04764
O         55.76881        29.91093        -7.18717
H         55.34850        30.79691        -7.12628
O         52.59790        31.31548         1.00614
H         53.58068        31.39024         1.07701
O         37.94179        36.39643         5.24513
H         37.27792        37.07951         5.48154
O         47.54419        27.92216        -2.60267
H         46.58623        27.74383        -2.73288
O         27.70252        28.72744        -1.23347
H         28.61468        29.09138        -1.33118
O         52.17289        39.53213         4.10084
H         51.41150        39.34060         4.69437
O         59.35065        38.84581         2.08271
H         59.55314        39.59609         2.68858
O         52.72234        43.98991         3.77615
H         51.36538        44.81309         4.76806
O         36.40127        41.99997         0.32057
H         37.30333        41.98355        -0.06182
O         38.49231        24.44015         5.63382
H         38.21555        23.56599         5.99920
O         51.13297        25.53850        -8.09220
H         51.74366        26.21956        -8.44793
O         24.30033        33.87108         0.62053
H         23.73199        33.19887         1.06283
O         37.71686        17.64538         4.18513
H         37.39980        18.22069         4.92471
O         47.88688        46.85202         4.08215
H         47.41198        46.27774         4.72734
O         30.24732        48.60647        -1.49883
H         29.34715        48.58285        -1.90027
O         47.57055        20.63965        -1.06366
H         47.40520        19.72872        -0.72490
O         50.76194        32.95621         2.32859
H         51.44923        32.26682         2.14090
O         50.16669        34.47020        -0.96390
H         50.70427        35.03990        -1.55132
O         41.88044        47.49633        -0.71612
H         42.67555        46.91070        -0.78309
O         56.44658        30.27918        -2.01023
H         57.04556        30.65129        -1.32328
O         37.60374        54.32694         0.90306
H         37.41034        55.25412         1.15653
O         30.40529        42.31631         1.63469
H         30.73503        42.80666         2.41860
H         23.42272        22.99327         1.29241
H         21.57434        23.92707         0.00076
H         21.64344        26.19716        -0.92375
H         21.85027        28.02511        -1.70943
H         21.81507        30.40518        -2.29489
H         21.69573        32.55463        -2.29123
H         22.26391        34.59114        -3.48748
H         22.94712        35.89963        -4.75702
H         23.42366        38.00379        -5.92838
H         24.64133        39.25425        -7.31710
H         25.36455        41.27130        -8.45205
H         25.54180        42.99714        -9.22075
H         27.61774        46.75253        -9.26079
H         26.18497        45.07147       -10.37688
H         24.87237        22.29198         2.34489
H         28.28692        48.25583        -8.13723
H         26.88080        21.22676         3.20124
H         29.72567        49.88071        -7.03271
H         30.53921        19.13032         4.09314
H         28.45985        20.33245         3.67949
H         31.97552        52.89768        -4.73995
H         30.67964        51.24725        -5.98854
H         32.12516        18.18372         3.32800
H         33.10002        54.19805        -3.90814
H         34.16001        16.92415         2.98696
H         34.82655        55.63357        -3.00698
H         37.22288        15.19102         0.91107
H         35.92171        15.89670         2.81620
H         37.93294        58.16788        -1.30651
H         35.94557        56.87983        -1.86720
H         38.35191        14.56630        -0.47766
H         39.45370        59.17125        -0.65739
H         41.29749        15.33895        -3.51348
H         39.67569        13.82369        -2.40413
H         43.54927        59.30170         0.59135
H         41.43082        60.41749         0.06717
H         43.17365        16.15689        -3.69645
H         45.29359        58.39587         0.63678
H         45.44032        17.01058        -3.73495
H         47.47102        57.28707         0.65120
H         47.66960        20.09791        -5.92944
H         46.67556        18.29315        -4.59904
H         51.22998        55.23572         1.48437
H         49.24493        56.37787         0.67804
H         48.07709        22.03759        -7.04691
H         52.89293        54.24600         1.87359
H         49.62009        23.67695        -8.05089
H         54.99682        53.03209         1.92439
H         55.01894        24.45925        -6.75464
H         52.97041        23.50261        -6.91332
H         58.79702        50.78353         2.10465
H         56.72261        52.03465         2.01338
H         56.48793        24.62642        -5.66389
H         60.45028        49.75298         2.34590
H         58.91395        24.95167        -5.40643
H         59.89393        27.24899        -5.71926
H         60.34122        31.10359        -6.50213
H         60.41031        33.40894        -5.70373
H         60.67944        35.03534        -4.67898
H         61.41843        36.54172        -2.95189
H         61.59490        38.40996        -2.12293
H         61.69409        40.62793        -1.08648
H         62.41259        41.93406         0.45048
H         62.44981        44.24719         1.18969
H         62.48050        45.97532         2.08383
H         62.52010        48.41086         2.46294
