         260
 CSIRO Nanostructure Databank - Neutral Graphene Oxide Data Set
C         30.30385        32.18772         0.53056
C         30.30395        33.32652        -0.01732
C         30.34194        36.08711        -0.25129
C         30.41614        37.37961        -0.37207
C         30.54053        40.69181        -0.32618
C         30.60355        41.92609        -0.48761
C         32.80941        29.71444         1.84373
C         31.71395        30.22964         1.52861
C         32.61553        31.73597        -0.10165
C         31.39435        31.34114         0.73716
C         32.56843        33.03506        -0.88494
C         31.26442        33.86165        -0.99337
C         32.62053        36.05291        -1.26425
C         31.28230        35.34446        -1.14437
C         32.75453        37.41387        -0.50259
C         31.47360        38.24807        -0.51632
C         32.81254        40.42082        -1.12556
C         31.48736        39.68498        -0.84555
C         32.93395        41.94720        -1.10035
C         31.71658        42.78196        -0.73670
C         33.18701        44.64031        -0.70496
C         32.00644        44.12108        -0.71411
C         35.53582        27.96610         1.89495
C         35.37938        29.34167         1.42067
C         34.12049        30.13237         1.34959
C         35.24371        31.76874        -0.28861
C         33.97063        31.10613         0.17817
C         35.18036        33.04179        -0.83542
C         33.89030        33.72701        -1.16912
C         35.22554        35.99782        -1.51292
C         33.89255        35.22774        -1.43437
C         35.22358        37.28800        -0.72151
C         34.00552        38.13377        -0.96049
C         35.41794        40.26799        -0.77227
C         34.10373        39.61639        -1.14309
C         35.53033        41.75824        -0.66287
C         34.33186        42.61869        -1.00951
C         35.73904        44.66336        -0.34820
C         34.43392        44.07937        -0.69412
C         35.98635        46.02469         0.11038
C         37.73640        27.44556         0.98273
C         36.42621        27.16686         1.58357
C         37.70356        28.84199         0.37600
C         36.36324        29.56899         0.20914
C         37.74457        31.63205        -0.36787
C         36.49002        31.05356        -0.09853
C         37.79113        32.96174        -1.01050
C         36.42724        33.73583        -1.23997
C         37.72474        35.92779        -1.30357
C         36.46137        35.19127        -1.17392
C         37.79247        37.37294        -0.89881
C         36.51650        37.95198        -0.42384
C         37.75553        40.05688         0.29710
C         36.46311        39.41269        -0.07737
C         37.78366        41.51853         0.44577
C         36.46324        42.26382         0.44997
C         37.71140        44.30423         1.41121
C         36.75282        43.76185         0.35313
C         37.62268        45.84148         1.84507
C         36.97973        46.51708         0.67285
C         40.07181        25.37507         3.26217
C         39.23318        25.90406         2.39825
C         40.24709        27.42657         0.94194
C         39.00465        26.91364         1.51650
C         40.20596        28.78751         0.32017
C         38.97636        29.64276         0.60671
C         40.23507        31.66003        -0.22617
C         38.99991        30.99174        -0.07430
C         40.20392        33.07539        -0.52655
C         39.03530        33.73092        -0.87825
C         40.23068        36.02501        -0.75680
C         39.03837        35.17444        -1.21043
C         40.21504        37.47822        -1.40182
C         38.95981        38.10198        -0.79073
C         40.22365        39.98861         0.23561
C         39.02837        39.36008        -0.04284
C         40.23179        41.21349         1.09082
C         38.93327        42.02364         1.19165
C         40.17046        44.01582         2.29316
C         38.88632        43.42517         1.76020
C         40.17021        45.49560         2.66306
C         38.95239        46.37984         2.35866
C         40.36377        48.45877         2.30654
C         39.30920        47.79917         2.27319
C         42.63281        25.40978         3.04557
C         41.29308        25.14626         2.61961
C         42.76199        27.24005         0.48611
C         41.41323        26.69067         0.93246
C         42.76886        28.77794         0.45341
C         41.50310        29.48244         0.03104
C         42.74855        31.62137        -0.16346
C         41.52511        30.97008        -0.07694
C         42.74779        33.10059        -0.30073
C         41.46587        33.83532        -0.48617
C         42.67280        35.93824        -1.01005
C         41.50459        35.25368        -0.93486
C         42.66000        37.37249        -0.61593
C         41.58369        38.27050        -1.21420
C         42.77971        40.14872         0.11832
C         41.48530        39.68167        -0.53007
C         42.77882        41.50944         0.65784
C         41.57519        41.82152         1.53442
C         42.69896        44.17439         1.86211
C         41.47575        43.28914         2.02437
C         42.66544        45.37871         2.73979
C         41.51684        46.04312         3.02608
C         42.92968        48.50923         2.40606
C         41.63985        48.32060         2.89021
C         43.62960        25.84053         2.45450
C         45.31224        27.43505         1.25408
C         44.01543        26.71142         1.35974
C         45.37722        28.76641         0.48364
C         44.07130        29.51949         0.33150
C         45.24792        31.65651        -0.23973
C         44.06472        30.96556        -0.09075
C         45.29500        33.19595        -0.28398
C         43.99247        33.76875        -0.79203
C         45.22789        36.00453        -0.96368
C         43.96743        35.23574        -1.12663
C         45.23046        37.26305        -0.46255
C         43.95128        37.98780        -0.21151
C         45.26284        40.11475         0.21626
C         43.95510        39.45541        -0.00121
C         45.24520        41.59093         0.49565
C         43.93813        42.24100         0.74808
C         45.33149        44.34991         1.29432
C         43.93755        43.68161         1.14777
C         45.24365        45.92001         1.26970
C         44.50201        46.59560         2.20529
C         44.03744        47.93460         2.27458
C         47.66137        27.82240         1.70735
C         46.56283        27.33191         2.02796
C         47.84404        29.24040         1.32845
C         46.64820        29.58039         0.41541
C         47.72390        31.91268         0.01903
C         46.60238        30.93597        -0.33888
C         47.76694        33.09960        -0.90917
C         46.46602        33.81195        -1.07009
C         47.76488        36.04416        -1.15697
C         46.46346        35.30605        -1.48881
C         47.76447        37.33557        -0.72379
C         46.52382        37.99438        -0.14758
C         47.71583        40.23989        -0.43094
C         46.41627        39.47297        -0.55931
C         47.58266        41.71616        -0.50639
C         46.40126        42.41656         0.07336
C         47.55775        44.57519        -0.10248
C         46.39153        43.76766         0.31218
C         47.28929        45.98517        -0.02230
C         46.20260        46.45346         0.38206
C         50.44566        29.70856         1.50794
C         49.05088        30.12659         1.38506
C         50.17088        32.39852         0.55284
C         48.95808        31.54654         0.77545
C         50.28114        33.30794        -0.50017
C         49.06318        33.79786        -1.17215
C         50.31313        36.02758        -1.33461
C         49.04372        35.34936        -1.45611
C         50.33106        37.41241        -0.84026
C         49.02709        38.12484        -0.55348
C         50.18100        40.42944        -0.60333
C         48.94455        39.63325        -0.58308
C         50.16253        41.79952        -0.43044
C         48.87923        42.51580        -0.58499
C         50.08197        44.53632        -0.45258
C         48.77158        43.98883        -0.37401
C         51.53791        30.10949         1.07550
C         52.97875        31.91255        -0.11347
C         52.14983        31.38912         0.88526
C         52.58253        33.12718        -0.43625
C         51.55696        33.90904        -0.86695
C         52.68641        36.14202        -1.32808
C         51.58572        35.20435        -1.69089
C         52.72015        37.35429        -1.13316
C         51.55480        38.25804        -1.13576
C         52.59874        40.62909        -0.69061
C         51.48145        39.72290        -0.95202
C         52.60486        41.84756        -0.50676
C         51.44923        42.63401         0.02069
C         51.22614        44.05167        -0.46680
O         35.77987        37.15774         0.59885
O         43.90666        45.83165         3.24320
O         42.94103        44.48434         0.43462
O         42.98993        37.41407         0.80536
O         51.40988        39.12062        -2.28257
O         45.04295        26.27584         0.43946
O         46.32014        28.56247        -0.59421
O         49.85323        37.61067         0.55359
O         39.18408        45.84937         3.69145
O         51.20831        32.34551         1.49861
O         41.27373        40.68660        -1.66498
O         42.13940        33.76187         0.86048
O         36.76055        39.54948         1.33612
O         35.16678        30.43918         2.30799
O         43.98636        34.19491        -2.17013
O         46.96043        32.96469        -2.11956
O         31.66764        32.98721        -2.03838
O         36.09775        41.07698        -1.79963
O         41.32128        25.29571         1.14981
O         47.85251        32.29602         1.40948
O         48.09705        42.18678        -1.79510
O         37.78970        27.64603        -0.45667
O         33.86120        34.27980        -2.52944
O         37.71549        43.51802         2.64013
O         40.87107        43.28879         3.34719
O         43.34735        29.38884         1.63341
O         49.09683        34.31127        -2.51742
O         34.09245        38.70669        -2.28602
O         45.57870        40.58998         1.54491
O         38.49088        35.48965        -2.51856
O         31.69862        35.96924        -2.37398
O         39.36275        41.06396         2.25034
O         36.93856        44.16063        -1.02739
O         37.15946        33.06002        -2.31233
O         33.11575        30.59757        -0.88060
O         33.67588        42.36344        -2.27789
O         40.73553        28.83587        -1.03328
O         41.58517        47.23078         3.83433
O         48.10693        30.05240         2.48440
O         31.91352        40.00031        -2.19353
O         40.04181        37.44987        -2.82014
H         39.27697        36.87132        -3.06793
O         35.66887        28.99008        -0.90356
H         36.18786        28.21166        -1.21891
O         51.65438        34.90165        -3.07241
H         50.78660        34.52377        -3.34865
O         45.78609        43.98405         2.60194
H         46.68948        44.33393         2.74608
O         36.70213        45.90803         2.91662
H         37.18179        45.69283         3.74771
O         35.39635        36.37031        -2.89535
H         35.13505        35.59764        -3.44685
O         33.02336        37.03272         0.86941
H         32.16590        36.79730         1.28792
O         46.06520        39.49583        -1.96328
H         46.41584        40.31331        -2.37720
O         46.83614        30.62989        -1.72278
H         46.38969        29.77604        -1.93287
O         40.04460        36.20023         0.67021
H         40.91855        36.33432         1.09867
O         38.97394        29.90109         2.04304
H         39.61041        30.61957         2.24448
O         42.99528        26.81664        -0.85575
H         42.90092        25.84206        -0.90321
O         46.36652        35.35264        -2.92357
H         46.77957        34.52782        -3.27334
O         42.16276        38.51621        -2.51711
H         41.45322        38.36809        -3.19129
O         41.93685        41.06357         2.71507
H         41.18207        41.13535         3.34475
O         35.72149        42.00728         1.66348
H         36.32041        42.18259         2.42896
O         46.69535        37.99859         1.28363
H         46.76028        37.07680         1.60819
O         51.45071        42.62957         1.42243
H         52.27073        43.05227         1.75077
O         45.46692        33.65549         1.07728
H         44.70926        33.35066         1.62120
O         42.55912        41.08643        -2.19352
H         42.82183        40.27250        -2.70565
