         349
 CSIRO Nanostructure Databank - Neutral Graphene Oxide Data Set
C          1.64094         3.94605        -3.07884
C          0.49695         4.37645        -2.47138
C          1.52150         6.52288        -1.83189
C          0.40279         5.67043        -1.89673
C          1.42437         7.88441        -1.27646
C          0.14476         8.41696        -0.81223
C          1.08952        10.72601        -0.77064
C         -0.02439         9.72801        -0.54384
C          0.92729        11.98995         0.09689
C         -0.17979        12.89347        -0.38774
C          0.95667        14.96915         0.34838
C         -0.15117        14.23946        -0.23730
C          0.97372        16.35373         0.46429
C         -0.11106        17.20543         0.03076
C          0.97589        19.25117         0.89218
C         -0.11505        18.55508         0.24508
C          0.83404        20.52681         1.45191
C         -0.03619        21.62785         1.09700
C          1.43493        23.46833         2.13045
C          0.21376        22.93691         1.38922
C          1.56549        24.99260         2.12703
C          0.42848        25.84590         2.50328
C          1.65634        27.90635         1.98267
C          0.54230        27.21708         2.54358
C          1.80099        29.31340         1.99221
C          4.01029         3.97571        -2.50867
C          2.88304         4.78014        -3.12150
C          3.97349         6.84958        -2.14706
C          2.74921         6.08125        -2.36495
C          3.89521         8.30342        -1.71432
C          2.53610         8.69592        -1.19479
C          3.56093        10.64888        -0.14028
C          2.43621        10.03752        -0.65046
C          3.42315        11.97788         0.49664
C          2.20984        12.75363         0.26956
C          3.44459        14.87173         0.56187
C          2.12504        14.14130         0.86802
C          3.45573        16.29798         1.06234
C          2.16610        17.06378         1.01537
C          3.50928        19.17712         0.95528
C          2.24600        18.54720         1.01019
C          3.69350        20.61186         0.99046
C          2.76472        21.44168         1.66388
C          3.69049        23.47779         0.76008
C          2.69074        22.82045         1.54117
C          3.65240        24.87016         0.56925
C          2.71710        25.66069         1.39221
C          3.70885        27.83411         0.44366
C          2.57995        27.12490         1.13647
C          3.97042        29.24709         0.79928
C          2.89159        29.96255         1.42811
C          6.29559         3.80434        -1.64670
C          5.11628         4.55197        -1.91900
C          6.27901         6.63964        -0.99979
C          5.22615         6.03650        -1.82841
C          6.22021         7.97266        -0.60025
C          5.01328         8.75521        -0.78529
C          6.02519        10.63063         0.43623
C          4.86136         9.98032        -0.15188
C          5.96359        11.92890         0.88798
C          4.68129        12.65728         0.99388
C          5.88178        14.82635         0.99151
C          4.70101        14.13868         0.98722
C          5.92406        16.27715         0.81928
C          4.72654        17.02179         0.86014
C          5.94282        19.06809         0.32084
C          4.73237        18.42330         0.72742
C          5.97409        20.48978         0.01846
C          4.81840        21.25322         0.40350
C          5.90618        23.29961        -0.33854
C          4.80029        22.67852         0.26549
C          5.87892        24.73180        -0.67899
C          4.63014        25.54185        -0.29476
C          6.14958        27.64559        -0.37364
C          4.79798        27.03478        -0.20910
C          6.44038        28.93227         0.36972
C          5.22468        29.78864         0.62342
C          8.69632         3.78016        -1.24373
C          7.45266         4.40897        -1.12399
C          8.54686         6.36112         0.11135
C          7.24878         5.69219        -0.32836
C          8.58962         7.84122         0.28101
C          7.35821         8.59198         0.05917
C          8.51153        10.64238         0.79709
C          7.29710         9.92885         0.44468
C          8.48384        11.97019         1.14026
C          7.16538        12.64327         1.44586
C          8.45319        14.81109         0.96741
C          7.16121        14.07479         0.96383
C          8.42216        16.30934         1.11167
C          7.14643        16.95501         0.63468
C          8.36890        18.91925        -0.28787
C          7.13739        18.31283         0.27180
C          8.36598        20.33703        -0.77550
C          7.10899        21.12927        -0.53015
C          8.00085        23.25329        -1.53846
C          7.02206        22.53785        -0.78073
C          8.25652        24.62358        -1.37118
C          7.17572        25.41420        -0.89384
C          8.54643        27.44767        -1.03943
C          7.32446        26.80402        -0.73574
C          8.63097        28.88960        -0.84253
C          7.61774        29.62341        -0.25089
C         11.15920         3.84221        -1.12601
C          9.91878         4.38673        -0.84151
C         11.11196         6.44868         0.04045
C          9.86140         5.67436        -0.11500
C         11.02661         7.68484         0.90967
C          9.75857         8.46652         0.62456
C         11.01128        10.61764         1.21238
C          9.83245         9.96938         0.50573
C         10.94859        11.99793         1.48145
C          9.71882        12.73192         1.34548
C         10.86115        14.98203         1.82271
C          9.69113        14.12380         1.37626
C         10.94233        16.34726         1.14845
C          9.70142        16.88959         0.55394
C         10.86953        19.13655         0.37669
C          9.69701        18.25758        -0.01881
C         10.92291        20.40594        -0.42827
C          9.73599        20.96059        -0.91722
C         10.94940        23.00762        -1.58430
C          9.85264        22.15767        -1.66399
C         10.85273        24.42065        -2.03049
C          9.52590        25.25698        -1.83497
C         10.86929        27.39801        -1.83848
C          9.66650        26.72015        -1.57959
C         10.92388        28.82884        -1.68473
C          9.83817        29.54656        -1.25486
C         13.60474         4.02264        -1.17728
C         12.38514         4.54601        -0.83602
C         13.53756         6.38725         0.52400
C         12.31482         5.86738        -0.20673
C         13.50914         7.86408         0.84623
C         12.30028         8.52950         0.89110
C         13.44201        10.55260         1.83620
C         12.22812         9.90612         1.29113
C         13.44268        12.05977         2.02395
C         12.20686        12.77087         1.59894
C         13.41114        15.03594         2.04773
C         12.18325        14.25747         1.66443
C         13.38996        16.46509         1.56173
C         12.12940        17.03955         1.02073
C         13.38556        19.06553         0.29748
C         12.17860        18.38822         0.48927
C         13.40184        20.40253        -0.27385
C         12.17852        21.06580        -0.62715
C         13.39537        23.11780        -1.33110
C         12.17970        22.41842        -1.13968
C         13.41629        24.47872        -1.73730
C         12.15823        25.16042        -2.11621
C         13.41422        27.37105        -1.81344
C         12.14366        26.69340        -2.14915
C         13.41207        28.79762        -1.66995
C         12.18064        29.56386        -2.07743
C         16.11416         4.10783        -1.18895
C         14.83112         4.88425        -1.17438
C         16.00866         6.66731         0.08784
C         14.83857         5.98206        -0.12925
C         16.05122         7.91653         0.85645
C         14.77020         8.40970         1.50006
C         15.91380        10.63126         1.80629
C         14.75681         9.91244         1.66932
C         15.90383        12.08206         1.98009
C         14.72538        12.79128         2.01138
C         15.92753        15.01228         1.84500
C         14.71713        14.27736         2.36520
C         15.89698        16.46645         1.64903
C         14.65279        17.16087         1.25650
C         15.90637        19.08058         0.33116
C         14.65165        18.40892         0.64733
C         15.87018        20.36400        -0.32933
C         14.65796        21.01652        -0.59358
C         15.93089        23.02600        -1.69006
C         14.64735        22.32723        -1.30671
C         15.92564        24.51640        -1.92912
C         14.62559        25.21520        -1.79489
C         15.86993        27.34258        -1.45938
C         14.61761        26.64070        -1.73176
C         15.76050        28.74392        -0.99931
C         14.53127        29.45441        -1.23114
C         18.56283         4.04755        -1.02296
C         17.29029         4.71729        -0.84774
C         18.47450         6.72123        -0.04147
C         17.28494         6.08065        -0.32191
C         18.48185         8.18590         0.34143
C         17.20311         8.61606         1.03137
C         18.46270        10.68315         1.73154
C         17.21396         9.85355         1.93286
C         18.45555        12.05881         1.75362
C         17.20693        12.79594         2.09202
C         18.45564        15.00373         1.55133
C         17.21373        14.33565         2.00356
C         18.44966        16.35344         1.21048
C         17.20955        17.16495         1.30705
C         18.39226        19.09177         0.27591
C         17.13512        18.44801         0.58570
C         18.39925        20.40770        -0.15952
C         17.16395        20.98341        -0.70660
C         18.47510        23.16705        -1.23839
C         17.22863        22.35489        -1.34138
C         18.50018        24.51756        -1.67474
C         17.23035        25.30002        -1.92100
C         18.26625        27.76872        -1.43869
C         17.11441        26.75117        -1.56224
C         18.07632        28.58859        -0.15712
C         16.78387        29.34264        -0.31827
C         19.72680         4.66837        -0.70202
C         20.88908         6.56132         0.35394
C         19.72932         6.00929        -0.16167
C         20.85740         7.81750         1.03691
C         19.72998         8.58305         1.09395
C         20.94618        10.73377         1.38354
C         19.76406         9.91422         1.81377
C         20.89025        12.07928         1.30013
C         19.67395        12.82174         1.55264
C         20.88866        14.95042         1.20737
C         19.67101        14.23065         1.46168
C         20.88448        16.27558         0.88644
C         19.66002        17.01709         0.80258
C         20.82499        18.99076        -0.15933
C         19.64249        18.36258         0.39165
C         20.84435        20.29748        -0.50454
C         19.68603        21.18852        -0.14059
C         20.90380        23.17121        -1.01417
C         19.67393        22.51659        -0.86748
C         20.96205        24.41644        -1.62713
C         19.76767        25.06822        -1.94268
C         20.73794        28.02572        -1.11230
C         19.68994        27.32646        -1.60844
C         20.49679        29.16552        -0.24350
C         19.25146        29.47775         0.16815
O         16.67771        17.22299         2.67932
O         12.40308        13.60728         0.37485
O         12.24741        25.90505        -3.36996
O          3.79038        12.02162         1.98839
O          8.18514        19.22808        -1.71839
O          9.15375         5.59257         1.19328
O          2.71982        16.52403         2.28736
O          9.97722        24.75575        -3.12754
O         17.40972        21.16867        -2.17897
O          1.79580        20.79795         2.44626
O          5.18336        27.69914        -1.46019
O          8.75860        22.52174        -2.45044
O          2.80875        25.38219         2.83648
O         15.19626        22.26997        -2.68846
O          5.03047         6.66529        -3.16174
O          4.79859        25.03240        -1.64101
O         13.23832        11.17862         3.15781
O          9.88933        17.11587        -0.89196
O         13.20113        16.10360         3.01975
O          2.45080        27.55130        -0.26155
O          7.87970        14.29060        -0.29238
O         17.37264        13.60012         3.28991
O         16.59774        24.91721        -3.18466
O         19.89849        26.32229        -2.56551
O         11.09230         7.17996         2.24077
O         19.97034         9.60123         3.24476
H         20.04108        10.45501         3.72413
O          6.56875         5.27843         0.89701
H          7.28229         5.03833         1.53457
O          3.20577         5.06993        -4.51788
H          4.02165         5.62366        -4.50058
O          0.99353        11.18011        -2.15073
H          1.27690        10.44315        -2.73288
O         14.81960        14.27850         3.81769
H         14.80010        15.21709         4.10896
O         10.10208        10.20301        -0.92565
H         10.06257        11.17192        -1.08051
O          3.49970        14.91367        -0.89377
H          4.34594        15.33117        -1.16285
O         17.93132        27.63247         0.93967
H         17.90831        28.14036         1.77729
O         18.51583         8.95312        -0.92211
H         19.31682         8.66770        -1.41133
O          7.01443        12.71184         2.89384
H          6.88606        11.80157         3.23411
O          6.87695        28.47670         1.71175
H          7.15398        29.26998         2.21759
O         13.42617         5.72904         1.84249
H         12.54076         6.06177         2.19891
O         10.52808        19.54689         1.75103
H         11.30530        20.00842         2.13131
O          1.31007        23.09840         3.52097
H          2.06820        23.50387         3.99348
O          8.42131        16.62315         2.53287
H          9.15146        16.12275         2.98404
O         10.66537        15.21511         3.25639
H         11.46485        15.70718         3.57546
O          0.59758        11.54509         1.44901
H          0.68728        12.33114         2.04085
O         14.78665         5.60183        -2.47652
H         15.61984         6.11544        -2.55151
O         14.69642         7.85565         2.84120
H         14.41967         6.90485         2.75817
O         18.08605        28.68246        -2.56269
H         18.23413        28.16964        -3.38568
O         19.88745        21.56446         1.27707
H         19.98757        20.73260         1.78832
O         17.24550         9.37766         3.30700
H         18.17141         9.09996         3.51022
O         12.19646        30.89125        -1.55500
H         12.18959        30.83980        -0.57768
O          1.92710        13.94473         2.29169
H          2.66461        13.36329         2.60952
O          4.07768         9.09873        -2.93093
H          4.78132         8.64756        -3.45190
H          1.67732         2.95596        -3.55603
H         -0.39337         3.73115        -2.45834
H         -0.56491         5.98971        -1.49001
H         -0.70325         7.72955        -0.68556
H         -1.00694        10.10353        -0.22286
H         -1.06274        12.42160        -0.84350
H         -1.01542        14.81603        -0.59971
H         -0.99598        16.74983        -0.43423
H         -1.00804        19.13918        -0.02375
H         -0.91850        21.39395         0.47953
H         -0.50215        23.68670         1.01401
H         -0.50169        25.35962         2.83019
H         -0.28220        27.81395         2.96239
H          1.04627        29.91178         2.52436
H          3.94432         2.87768        -2.55039
H          2.99342        31.05013         1.55670
H          6.35272         2.76808        -2.01591
H          5.39858        30.83581         0.92051
H          8.74470         2.81567        -1.77402
H          7.75165        30.70579        -0.10030
H         11.22190         2.87489        -1.64783
H          9.90614        30.64168        -1.18093
H         13.66832         3.02866        -1.64581
H         12.19465        29.66088        -3.19818
H         16.11953         3.09308        -1.61527
H         14.50606        30.54394        -1.08376
H         18.56251         3.02279        -1.42180
H         16.66403        30.35400         0.09895
H         20.69049         4.15164        -0.81958
H         21.82958         5.99416         0.31758
H         21.77054         8.14700         1.55383
H         21.89690        10.21549         1.19243
H         21.80207        12.61817         1.01217
H         21.85495        14.43486         1.26606
H         21.84189        16.77819         0.69898
H         21.70995        18.37312        -0.36489
H         21.74448        20.72389        -0.96807
H         21.83184        22.69228        -0.67675
H         21.92113        24.90881        -1.83027
H         21.76684        27.75961        -1.38641
H         21.35656        29.78165         0.05658
H         19.07863        30.33736         0.83375
