         324
 CSIRO Nanostructure Databank - Neutral Graphene Oxide Data Set
C          1.43489         2.07616         2.09361
C          1.35914         3.48224         1.81828
C          2.57103         1.34812         1.87213
C          2.46264         4.20241         1.41605
C          1.15790         6.33661         1.09603
C          1.08267         7.68209         1.00534
C          2.43403         5.62607         1.09967
C          2.34164         8.46874         1.04495
C          1.14988        10.77398         1.15385
C          1.16758        12.12242         0.95975
C          2.38060         9.96812         1.16045
C          2.39409        12.87295         0.89687
C          1.26368        15.07524         0.87340
C          1.29405        16.44175         0.80484
C          2.46052        14.27827         0.80695
C          2.52238        17.14379         0.59759
C          2.55146        18.56147         0.51914
C          3.75837         1.97994         1.34728
C          3.74767         3.47040         1.29755
C          4.88382         1.27759         1.01032
C          4.91064         4.18250         0.69060
C          3.58933         6.31926         0.73943
C          3.51523         7.79053         0.36307
C          4.81789         5.64051         0.42482
C          4.82354         8.53830         0.52588
C          3.65259        10.65647         0.87520
C          3.63949        12.11115         1.07014
C          4.85697         9.94245         0.66122
C          4.96115        12.84338         0.97999
C          3.72788        14.95831         0.61001
C          3.72988        16.40249         0.44334
C          4.94955        14.26317         0.59486
C          4.93009        17.08504         0.17571
C          3.73825        19.23092         0.31506
C          4.95724        18.50955         0.13668
C          5.97180         1.89747         0.21088
C          5.94888         3.37141        -0.01629
C          7.26773         1.12996        -0.00928
C          7.13726         4.10825        -0.57503
C          5.93914         6.32954         0.01267
C          6.05870         7.76972         0.33696
C          7.09028         5.62388        -0.59262
C          7.37481         8.47801         0.15476
C          6.13783        10.67704         0.57030
C          6.16902        12.04419         0.69580
C          7.38959         9.96353         0.27046
C          7.43316        12.83004         0.94140
C          6.19886        14.90083         0.26321
C          6.15112        16.31654        -0.25599
C          7.41433        14.23320         0.34573
C          7.43430        17.07131        -0.04510
C          6.18639        19.19593        -0.02600
C          7.42428        18.50195        -0.05924
C          8.50625         1.98698        -0.24954
C          8.45420         3.41497        -0.56542
C          9.70433         1.32251        -0.24740
C          9.62111         4.12735        -0.75715
C          8.35096         6.38136        -0.93526
C          8.50540         7.81521        -0.56407
C          9.62815         5.55702        -1.14224
C          9.67960         8.49653        -0.74562
C          8.59226        10.60899         0.20322
C          8.70008        12.03588         0.62491
C          9.88277         9.83941        -0.05002
C          9.95818        12.79247         0.34859
C          8.67353        14.92901         0.12911
C          8.64916        16.36806        -0.01817
C          9.91484        14.26157         0.11479
C          9.88126        17.08762        -0.13520
C          8.65266        19.21076        -0.06219
C          9.88199        18.53651        -0.13742
C         10.96776         1.98562        -0.46840
C         10.93095         3.47373        -0.51558
C         12.14801         1.29902        -0.51948
C         12.21008         4.23320        -0.68131
C         10.92706         6.30755        -1.31361
C         10.88421         7.82114        -1.29894
C         12.23441         5.66347        -1.06918
C         12.20218         8.53858        -1.38482
C         11.00312        10.69571        -0.63448
C         11.17321        12.02551        -0.07518
C         12.20444        10.05706        -1.16135
C         12.44249        12.81312        -0.34783
C         11.12063        14.96275        -0.23689
C         11.07725        16.37871        -0.34199
C         12.37459        14.28010        -0.47298
C         12.26277        17.14493        -0.77413
C         11.11575        19.24526        -0.17525
C         12.33080        18.58815        -0.44579
C         13.42658         1.95847        -0.85922
C         13.45582         3.46086        -0.97625
C         14.70902         1.28224        -0.66189
C         14.73734         4.17389        -0.82772
C         13.43700         6.35238        -1.11707
C         13.46658         7.79718        -1.31082
C         14.71829         5.62881        -0.98076
C         14.67716         8.51792        -1.37124
C         13.52569        10.70409        -1.05814
C         13.59246        12.10279        -0.90520
C         14.69187         9.93581        -1.27036
C         14.80093        12.83604        -1.10179
C         13.54582        14.94917        -0.84849
C         13.54237        16.40852        -1.05753
C         14.78992        14.25879        -1.04161
C         14.82996        17.13673        -1.02385
C         13.57282        19.23083        -0.46032
C         14.81414        18.56614        -0.74839
C         15.92029         1.95730        -0.62742
C         15.91464         3.44188        -0.65178
C         17.12735         1.13880        -0.71527
C         17.15220         4.19055        -0.66573
C         15.90040         6.31234        -1.18694
C         15.96606         7.75886        -1.64086
C         17.16400         5.56357        -1.19907
C         17.23362         8.46233        -1.17519
C         15.96241        10.66974        -1.05985
C         16.01826        12.13294        -1.24309
C         17.24564         9.92438        -1.00164
C         17.24673        12.82314        -1.33226
C         16.02006        14.96778        -1.20988
C         16.01058        16.42389        -1.16798
C         17.23047        14.25287        -1.37555
C         17.27482        17.15613        -1.34473
C         16.01466        19.26431        -0.61526
C         17.27961        18.68426        -1.04380
C         18.36890         1.53015        -0.20004
C         18.32758         3.67032        -0.16831
C         19.70255         1.15757        -0.45382
C         19.63702         4.22230        -0.36065
C         18.48422         6.32177        -1.05971
C         18.43269         7.80073        -0.96370
C         19.66065         5.59974        -0.57965
C         19.62477         8.52546        -0.66295
C         18.50428        10.68314        -1.15802
C         18.49316        12.06288        -1.31476
C         19.70984         9.95146        -0.82842
C         19.78985        12.76116        -1.38104
C         18.50540        14.99941        -1.53564
C         18.55385        16.44282        -1.26821
C         19.82638        14.25621        -1.44630
C         19.76842        17.11865        -1.17169
C         18.57913        19.24963        -0.68519
C         19.75653        18.54758        -0.85435
C         20.85276         1.99889        -0.17728
C         20.84588         3.45011        -0.17851
C         22.10106         1.34400        -0.04880
C         22.09914         4.16488        -0.24394
C         20.86340         6.32117        -0.18754
C         20.82785         7.82306        -0.21424
C         22.13968         5.60761        -0.25651
C         22.13597         8.56455        -0.38621
C         20.86849        10.63892        -0.45367
C         21.01755        12.03382        -0.83297
C         21.95010         9.90187         0.32305
C         22.10308        12.85449        -0.25666
C         21.02012        14.98989        -0.98114
C         21.03627        16.39709        -1.12308
C         22.07477        14.23150        -0.33102
C         22.27159        17.16588        -1.06865
C         21.01720        19.22216        -0.64660
C         22.21986        18.58044        -0.78133
C         23.33135         2.04042         0.01976
C         23.31843         3.45084        -0.17007
C         24.58122         1.37396         0.21888
C         24.59216         4.14700        -0.37600
C         23.33543         6.37166        -0.18041
C         23.35664         7.77181        -0.00152
C         24.61681         5.68244        -0.39011
C         24.57380         8.50727         0.21475
C         23.25917        10.65982         0.49384
C         23.27383        12.16056         0.35731
C         24.53202         9.89976         0.41689
C         24.57930        12.88060         0.31395
C         23.19125        14.89529         0.41496
C         23.54642        16.60747        -1.27693
C         24.53466        14.25605         0.21423
C         24.75546        17.21001        -0.72934
C         23.48578        19.40155        -0.89091
C         24.74347        18.65064        -0.53272
C         25.81210         2.05394         0.22102
C         25.85074         3.47112        -0.06484
C         27.04059         1.38229         0.49407
C         27.04344         4.19157        -0.13411
C         25.88579         6.37883        -0.15367
C         25.85799         7.79924         0.13409
C         27.07088         5.63112        -0.21215
C         27.05397         8.49442         0.27546
C         25.75136        10.66953         0.71863
C         25.80594        12.13959         0.50304
C         27.08410         9.90268         0.69551
C         27.03254        12.80470         0.48822
C         25.76111        15.07452         0.28873
C         25.83398        16.45887        -0.24559
C         27.07513        14.29024         0.50682
C         27.12541        17.18580        -0.06583
C         25.80601        19.30073         0.03767
C         27.04476        18.61606         0.29841
C         28.27180         2.02933         0.36805
C         28.30681         3.42713        -0.10242
C         29.50220         1.38098         0.66974
C         29.64508         4.19433         0.03361
C         28.36681         6.34583        -0.27682
C         28.33774         7.86638        -0.05618
C         29.62396         5.66070         0.07995
C         29.59103         8.55188         0.32781
C         28.32293        10.66799         0.49467
C         28.28781        12.07234         0.44768
C         29.57589         9.97244         0.43753
C         29.52289        12.78172         0.30753
C         28.33985        14.95614         0.17095
C         28.43411        16.44797         0.11361
C         29.45249        14.16974        -0.01663
C         29.57148        17.17282         0.77786
C         28.15136        19.24327         0.80988
C         29.37697        18.54223         1.11424
C         30.69867         2.07553         0.79463
C         30.78110         3.47473         0.61406
C         31.91436         4.23738         0.98875
C         30.77395         6.35860         0.44785
C         30.79103         7.82860         0.45854
C         31.92598         5.61402         0.87353
C         31.99330         8.56173         0.62850
C         30.80019        10.69211         0.57321
C         30.77922        12.14729         0.59503
C         31.99942         9.94688         0.65307
C         31.87406        12.86957         1.12580
C         31.15527        15.20458         0.75580
C         30.80694        16.56314         1.16097
C         31.90821        14.25617         1.42939
C         31.75800        17.29258         1.90316
C         30.37959        19.25943         1.80829
C         31.54919        18.63431         2.22126
O         18.25281         2.60150         0.71672
O         29.16986         3.64855        -1.25233
O         12.65839        16.83814        -2.16256
O         30.62062        14.79785        -0.48210
O         23.03279        15.79904         1.22225
O          4.85635         3.98746         2.14866
O          9.66183        12.28369         1.72180
O         16.54508        10.30216         0.27335
O         19.29103        14.68023        -2.74310
O         18.01115         5.81786        -2.38625
O         23.12345        11.53316         1.68486
O          6.70048         4.81791        -1.76935
O         12.19405        12.22466         0.99868
O         20.67783         7.12805         1.06221
O         17.23373        18.14630        -2.41190
O          7.06092         7.88747         1.46338
O         10.81478         7.07851        -2.55397
O          4.37803        12.54426         2.28794
O         13.35325         2.65467        -2.19222
O         11.65269         4.04360         0.67194
O          5.40600         2.46182        -1.03458
O         28.43146         7.28112        -1.40095
O         12.08776         9.46921        -2.51391
O         26.41103        10.22095         1.95609
O         26.38892        14.95200         1.61745
O         28.05183        16.96466        -1.21571
O          8.76394         5.94711        -2.25154
O          2.56882         9.05146         2.35075
O         24.62401         4.90832        -1.63470
O         20.78315        12.20315        -2.28778
O          7.50426         0.26309         1.10837
H          7.69377         0.81071         1.89771
O         10.41281         9.49290         1.27165
H         10.45130        10.33292         1.79091
O          3.19167         7.83841        -1.07119
H          3.82220         7.25505        -1.54573
O          6.01771        16.18015        -1.73038
H          6.00516        17.08811        -2.10273
O         21.42745         9.63084         1.63526
H         21.72153        10.35941         2.22875
O         23.61283        19.82203        -2.26435
H         22.73795        20.13996        -2.56929
O         23.69615        15.47474        -2.00861
H         24.64547        15.30419        -2.17397
O         22.30195         8.86459        -1.80148
H         22.59479         8.05162        -2.26475
O          7.38301        13.06196         2.37865
H          8.30342        12.95120         2.71878
O         16.09896         7.71959        -3.10109
H         16.81173         7.06254        -3.29823
H          0.52963         1.57360         2.46218
H          0.38419         3.97167         1.94708
H          2.58169         0.26244         2.04595
H          0.23006         5.75068         1.15113
H          0.10902         8.19139         1.03883
H          0.18810        10.25767         1.28021
H          0.20796        12.65481         0.90418
H          0.29807        14.57639         1.02989
H          0.36324        17.01957         0.89971
H          1.61241        19.12104         0.63829
H          4.92379         0.18963         1.16928
H          3.75982        20.32959         0.28019
H          7.12865         0.46051        -0.89838
H          6.18872        20.29572        -0.03780
H          9.71053         0.23587        -0.07472
H          8.63662        20.31057        -0.04713
H         12.15032         0.20847        -0.36854
H         11.10988        20.33562        -0.02765
H         14.70255         0.18634        -0.55842
H         13.61188        20.30709        -0.23284
H         17.03629         0.17861        -1.24558
H         16.00949        20.28025        -0.19266
H         19.90731         0.17895        -0.91478
H         18.61519        20.27651        -0.29120
H         22.11806         0.24463        -0.00975
H         20.99735        20.30758        -0.46336
H         24.57606         0.28730         0.39052
H         23.39970        20.31679        -0.23518
H         27.01585         0.32331         0.79180
H         25.73748        20.37486         0.26564
H         29.47983         0.30679         0.90462
H         28.10591        20.31807         1.04196
H         31.59777         1.53692         1.12826
H         32.80117         3.71636         1.37801
H         32.83295         6.15486         1.17343
H         32.95369         8.03364         0.69453
H         32.96350        10.46855         0.72604
H         32.68671        12.27044         1.56483
H         32.54657        14.57425         2.26811
H         32.70160        16.80477         2.18536
H         30.20771        20.31967         2.04217
H         32.31307        19.19391         2.77759
