         280
 CSIRO Nanostructure Databank - Neutral Graphene Oxide Data Set
C         30.41940        31.50737        -0.12790
C         30.57427        32.76506         0.06986
C         30.32288        35.98832         0.28933
C         30.32557        37.21106         0.13116
C         30.48565        40.37168         0.88447
C         30.31816        41.49449         1.47951
C         33.02624        28.77640         0.33900
C         31.94480        29.32288         0.07929
C         32.88346        31.57668         0.05264
C         31.58507        30.71719         0.50704
C         32.87732        32.98487         0.72367
C         31.54108        33.69291         0.36280
C         32.70264        35.84354        -0.11418
C         31.51763        35.15639         0.62100
C         32.66077        37.32963        -0.35427
C         31.29282        38.22144        -0.40848
C         32.74462        40.24361         0.34194
C         31.39625        39.54815         0.29074
C         32.76160        41.60757        -0.34753
C         30.45044        42.80478         1.85199
C         32.77352        43.91318         1.12351
C         31.69700        43.47352         1.52630
C         35.89382        27.46233         1.43261
C         35.54607        28.88189         1.30648
C         34.28150        29.43169         0.74482
C         35.49070        31.65683         0.36311
C         34.24184        30.86110         0.23416
C         35.45765        33.15122         0.58399
C         34.10169        33.81366         0.30051
C         35.22463        35.83299        -0.67995
C         34.02652        35.13352        -0.01362
C         35.23084        37.34439        -0.47037
C         33.97073        38.00055         0.06054
C         35.23691        40.18010         0.21982
C         33.95039        39.48406        -0.11982
C         35.22328        41.62438        -0.33649
C         33.91414        42.35217        -0.24719
C         35.14603        44.51235         0.16532
C         33.79549        43.84482        -0.01961
C         35.34775        45.93689         0.27754
C         38.30243        27.51828         1.55833
C         36.96829        26.96876         1.79482
C         38.18312        28.95453         1.08800
C         36.90011        29.71884         1.41222
C         37.91258        31.66740         0.13591
C         36.81064        31.02412         0.65379
C         37.80963        33.07136        -0.31657
C         36.65029        33.77124        -0.12218
C         37.74111        35.90507        -0.95610
C         36.58062        35.27195        -0.20923
C         37.67788        37.40605        -0.99916
C         36.40508        38.05753        -0.56604
C         37.65960        40.17597        -0.32303
C         36.46701        39.47841        -0.29734
C         37.69798        41.64406        -0.00336
C         36.42578        42.40481         0.11672
C         37.67826        44.58534         0.08721
C         36.38147        43.88819         0.02978
C         37.75332        46.13612         0.05488
C         36.37250        46.61120         0.45463
C         40.39286        24.61398         0.29931
C         39.53332        25.23703         0.94034
C         40.37155        27.33595         0.04836
C         39.45932        26.68871         1.12763
C         40.58860        28.82995         0.39343
C         39.25731        29.57859         0.51271
C         40.32284        31.62541        -0.41329
C         39.19672        30.97721         0.07001
C         40.33625        32.97836        -1.09741
C         38.93748        33.70230        -1.14987
C         40.21681        35.92996        -1.05186
C         39.05563        35.21160        -0.93247
C         40.20515        37.38685        -0.94256
C         38.95535        38.13117        -0.83115
C         40.15405        40.19756        -0.14748
C         38.91223        39.48024        -0.51825
C         40.16713        41.69749        -0.01141
C         38.91157        42.43743        -0.42317
C         40.16341        44.51607         0.41592
C         38.86164        43.89268         0.02498
C         40.20315        45.91320         0.95721
C         38.91858        46.72022         0.81385
C         40.25264        48.67475         1.28975
C         39.13733        48.02145         1.12050
C         42.85003        24.51552        -0.55821
C         41.63714        25.13917        -0.21786
C         42.84525        27.28450        -0.64679
C         41.66005        26.57328        -0.27630
C         42.88042        28.74818        -0.59203
C         41.53797        29.45576        -0.63495
C         42.78538        31.64933        -0.47923
C         41.60061        30.94990        -0.44204
C         42.81546        33.09621        -0.59071
C         41.49824        33.85817        -0.49147
C         42.82104        36.04286        -0.96813
C         41.55747        35.20828        -1.23692
C         42.70845        37.41457        -1.13228
C         41.41348        38.07005        -0.90770
C         42.67515        40.27330        -0.48907
C         41.43692        39.45975        -0.37882
C         42.64535        41.76660        -0.51727
C         41.42237        42.47242        -0.14768
C         42.69658        44.56200         0.06900
C         41.43717        43.83533         0.02680
C         42.60021        46.07928         0.06215
C         41.59487        46.61444         1.13535
C         42.78005        48.76228         0.71327
C         41.50761        48.23147         1.05276
C         43.88247        25.20610        -0.80119
C         45.33164        27.29960        -1.10072
C         44.06644        26.58395        -0.91073
C         45.34504        28.81938        -0.83891
C         44.04842        29.46366        -0.56304
C         45.29677        31.65190        -0.47751
C         44.04732        30.91353        -0.07653
C         45.21150        32.90780        -1.04113
C         44.00759        33.75664        -0.82542
C         45.47732        35.91289        -0.49987
C         44.04340        35.25957        -0.42883
C         45.55689        37.36177        -0.07006
C         43.76447        38.31332        -1.70611
C         44.99713        40.41265        -1.09176
C         43.84177        39.70615        -1.18872
C         45.19517        41.59378        -0.14991
C         43.97315        42.49835        -0.37626
C         45.19416        44.54056         0.49823
C         43.90944        43.90254         0.03131
C         45.16125        46.05341         0.17498
C         43.99073        46.74370         0.14129
C         43.77434        48.15601         0.25791
C         47.54387        27.28264        -0.02143
C         46.60918        26.75144        -0.62324
C         47.62109        28.67638         0.45161
C         46.61684        29.49835        -0.35868
C         47.72667        31.63868         0.61054
C         46.61636        30.99054        -0.20681
C         47.78577        33.11084         0.77829
C         46.60600        33.92407         0.85548
C         47.91985        35.83091         0.11725
C         46.64324        35.22967         0.27764
C         48.01476        37.22619        -0.36960
C         46.77030        38.04073        -0.33473
C         48.05768        40.17762        -0.25546
C         46.96689        39.39043        -0.72970
C         47.89069        41.58531        -0.01931
C         46.56468        42.33081        -0.25616
C         47.78139        44.53325         0.45203
C         46.49298        43.81430         0.04345
C         47.62786        45.96859         0.08853
C         46.51249        46.51118         0.13065
C         50.07489        28.77093         1.34303
C         48.75939        29.38783         1.08541
C         50.07020        31.58306         1.44593
C         48.83265        30.89149         0.94966
C         50.29321        32.99219         0.88498
C         49.01410        33.78794         0.80333
C         50.40837        35.87000         0.58072
C         49.09727        35.18917         0.57867
C         50.55884        37.20441         0.08567
C         49.32174        37.99069        -0.22394
C         50.12570        40.09164         0.98702
C         49.20160        39.42717         0.17139
C         50.07037        41.50330         1.08796
C         48.99371        42.26538         0.57071
C         50.38478        44.30202         0.40082
C         49.03589        43.77009         0.63740
C         51.14665        29.38437         1.48881
C         52.52734        31.62150         1.63672
C         51.68147        30.63026         0.96764
C         52.55961        32.85797         1.72062
C         51.36128        33.78431         1.68474
C         52.70598        35.85454         0.81307
C         51.54858        35.11481         1.00347
C         52.90809        36.96537         0.23568
C         51.83517        37.77412        -0.20174
C         52.52749        40.16738        -0.61308
C         52.12024        38.94703        -1.08377
C         52.42037        41.40668        -0.34574
C         52.01067        42.47123         0.40055
C         51.39055        43.68079        -0.01304
O         46.13732        39.94344        -1.69419
O         46.53966        43.32913        -1.32237
O         51.26920        42.04072         1.62987
O         40.10966        44.80616         1.90002
O         48.82252        37.58800        -1.54032
O         37.16284        41.98247         1.32501
O         39.41378        27.22393         2.46274
O         43.34423        42.29855        -1.68260
O         45.43886        28.22101        -2.18595
O         37.50020        36.59522        -2.20970
O         44.49134        37.93846        -2.62677
O         34.52958        29.39787         2.18723
O         40.05878        40.85931         1.16976
O         42.37066        39.61773         0.77912
O         32.58251        36.39886        -1.47555
O         48.26656        44.29390         1.77802
O         47.23982        30.32325        -1.38078
O         40.72172        32.65651        -2.41703
O         47.60999        28.93032         1.86835
O         35.05672        31.12248        -0.95055
O         42.00985        46.42919        -1.20616
H         42.59740        46.12570        -1.92975
O         39.53778        27.28851        -1.14333
H         39.47352        26.35328        -1.43617
O         43.74027        35.28645         1.01335
H         42.79518        34.99031         1.14224
O         51.91755        30.54453        -0.38132
H         52.24041        31.41046        -0.71144
O         50.78383        32.90506        -0.47668
H         50.06308        32.55169        -1.04163
O         41.04776        29.30623        -1.97977
H         40.40117        28.56307        -2.02268
O         41.29035        28.94459         1.64907
H         40.73811        28.50689         2.34571
O         31.41154        30.72988         1.88482
H         30.75527        30.05481         2.14981
O         42.11350        46.28035         2.41097
H         41.45271        45.71083         2.87222
O         41.75922        34.96792        -2.64361
H         41.41626        34.03645        -2.85370
O         45.91593        35.89278        -1.87659
H         45.35791        36.51309        -2.42040
O         35.67126        33.32759         2.01290
H         35.82886        34.29286         2.15334
O         29.45854        43.51440         2.45638
H         29.76892        44.41687         2.66383
O         35.09769        35.53018        -2.07766
H         34.21680        35.85716        -2.37397
O         45.11642        41.01344         1.18159
H         45.11814        41.73864         1.84577
O         35.40397        40.14405         1.68695
H         36.20706        40.68862         1.90873
O         46.29555        33.33984        -1.71854
H         46.16563        34.24296        -2.10227
O         50.87957        34.04411         2.99807
H         51.62704        34.34395         3.55386
O         43.99733        30.81945         1.38862
H         43.23273        30.24657         1.62780
O         51.11751        39.45517         1.65091
H         51.67319        40.15913         2.06480
O         35.49247        41.47008        -1.78138
H         34.71770        41.02151        -2.18446
O         41.23366        34.15134         0.91053
H         41.19152        33.29810         1.39514
O         45.20818        44.40728         1.94416
H         44.59684        45.06940         2.33431
O         31.61580        42.15475        -0.76508
H         31.79790        43.06959        -1.08626
O         37.95207        46.45175        -1.33017
H         38.05500        47.42278        -1.41896
O         33.99233        37.75505         1.51384
H         34.58533        38.43689         1.91474
O         33.15468        44.47507        -1.15141
H         33.19418        45.44745        -1.02293
O         38.45191        33.57929        -2.49704
H         39.20337        33.14129        -2.99655
O         32.86303        40.62296         1.75864
H         33.81810        40.69853         2.00049
O         32.69091        31.79336        -1.34373
H         33.56125        31.68655        -1.79788
O         31.81760        35.33945         2.02905
H         30.97829        35.27500         2.53146
O         44.60612        37.87937         0.69989
H         44.77952        38.81158         0.96829
O         31.05530        38.47030        -1.78042
H         31.13439        37.61382        -2.25731
O         32.92237        32.82235         2.14006
H         32.87189        33.72000         2.54406
O         38.94553        42.44842        -1.87588
H         38.09449        42.80369        -2.21127
O         45.55728        33.43012         1.51093
H         44.79942        34.07566         1.52872
O         36.72598        35.72506         1.18520
H         37.62850        35.48776         1.48891
O         50.08376        31.59435         2.84035
H         49.72513        30.74590         3.17435
O         37.00662        30.05239         2.81654
H         36.11225        30.31689         3.13092
O         52.19668        38.66917        -2.40044
H         51.94378        37.74020        -2.57439
