         200
 CSIRO Nanostructure Databank - Neutral Graphene Oxide Data Set
C        -11.13182         0.74279        -0.05952
C         -9.90810         1.56009        -0.14428
C         -8.58834         0.78739         0.01949
C         -7.41719         1.50205         0.59985
C         -6.11416         0.74572         0.54248
C         -4.85311         1.49646         0.37589
C         -3.66079         0.76698         0.23935
C         -2.41075         1.47907         0.02743
C         -1.23471         0.78457        -0.17139
C         -0.01931         1.51046        -0.55942
C          1.27537         0.75348        -0.69207
C          2.53176         1.49711        -0.55636
C          3.74538         0.77002        -0.50386
C          4.97611         1.48494        -0.47646
C          6.19346         0.75861        -0.47635
C          7.45635         1.49534        -0.60629
C          8.75434         0.73578        -0.38325
C          9.95595         1.51201        -0.01199
C         11.14056         0.74581         0.30531
C         -9.89510         2.98863         0.15226
C         -8.68752         3.70421         0.15653
C         -7.40385         3.04087         0.70360
C         -6.11137         3.66663         0.20830
C         -4.88238         2.92581         0.24297
C         -3.64583         3.63199         0.10932
C         -2.41085         2.92657         0.01029
C         -1.18557         3.63868        -0.05897
C          0.04568         2.95800        -0.31518
C          1.26642         3.63415        -0.41008
C          2.51916         2.90890        -0.54359
C          3.75675         3.61573        -0.54909
C          4.97279         2.92136        -0.51406
C          6.23612         3.64633        -0.43588
C          7.45144         2.95580        -0.41636
C          8.69462         3.64237        -0.20661
C          9.91709         2.88722        -0.01832
C         -8.61161         5.08320        -0.02741
C         -7.36339         5.80135        -0.07044
C         -6.10434         5.05080         0.00237
C         -4.86644         5.77295        -0.06567
C         -3.63901         5.05927         0.07020
C         -2.41162         5.77729         0.16585
C         -1.16110         5.05902         0.12072
C          0.07090         5.73539         0.11040
C          1.29442         5.06609        -0.20698
C          2.49725         5.78891        -0.28803
C          3.74408         5.10566        -0.78835
C          5.01559         5.79939        -0.36447
C          6.22856         5.07823        -0.31623
C          7.47176         5.77675        -0.13636
C          8.68313         5.03543        -0.07696
C         -7.34978         7.16404        -0.27703
C         -6.09386         7.90324        -0.65107
C         -4.84620         7.18413        -0.20982
C         -3.64542         7.89563        -0.03654
C         -2.43857         7.18824         0.20084
C         -1.21609         7.93744         0.48975
C          0.11520         7.16239         0.43472
C          1.33639         7.91964         0.17679
C          2.52779         7.20862        -0.10098
C          3.76787         7.92150        -0.13029
C          5.01013         7.19893        -0.19566
C          6.25104         7.90318        -0.03924
C          7.45499         7.18896        -0.02242
C         -6.07557         9.36406        -0.28390
C         -4.92042        10.02814        -0.06855
C         -3.63077         9.35224        -0.02036
C         -2.44363        10.05306         0.08766
C         -1.17464         9.39284         0.25465
C          0.04716        10.04470         0.24832
C          1.31126         9.34273         0.22965
C          2.54165        10.03109         0.15103
C          3.76449         9.33421         0.03596
C          5.03099        10.02237         0.09776
C          6.21368         9.33934         0.08111
C        -11.09295        -0.61160        -0.00709
C         -9.85142        -1.37304         0.04266
C         -8.61954        -0.67599         0.13401
C         -7.38466        -1.38657         0.19498
C         -6.13982        -0.69083         0.21223
C         -4.92043        -1.39986         0.16701
C         -3.65688        -0.67379         0.19556
C         -2.44894        -1.39345         0.07442
C         -1.13579        -0.66562         0.19163
C          0.05398        -1.40440        -0.37839
C          1.28505        -0.71602        -0.53193
C          2.50860        -1.38921        -0.61233
C          3.74703        -0.67102        -0.53979
C          4.96933        -1.37313        -0.41552
C          6.20102        -0.65122        -0.37182
C          7.44143        -1.34032        -0.08078
C          8.66044        -0.68459        -0.00123
C          9.88596        -1.38865         0.32819
C         11.11467        -0.61395         0.40748
C         -9.85637        -2.77647         0.07232
C         -8.64404        -3.52116         0.11765
C         -7.39457        -2.81140         0.13563
C         -6.16390        -3.52429         0.12168
C         -4.93791        -2.81313         0.14188
C         -3.66675        -3.56519         0.41649
C         -2.42210        -2.80593         0.03578
C         -1.21197        -3.51850        -0.13672
C          0.03440        -2.82347        -0.35694
C          1.23734        -3.56129        -0.51183
C          2.50493        -2.85969        -0.92991
C          3.75783        -3.57485        -0.51899
C          4.97500        -2.83437        -0.35298
C          6.15424        -3.51168        -0.06312
C          7.35673        -2.75498         0.31817
C          8.63641        -3.50859         0.63099
C          9.88907        -2.75910         0.50621
C         -8.63180        -4.93333         0.15139
C         -7.41713        -5.66577         0.13983
C         -6.17243        -4.96253         0.08435
C         -4.95262        -5.68880        -0.07112
C         -3.68621        -4.98990        -0.06553
C         -2.48544        -5.64825        -0.23919
C         -1.21960        -4.94991        -0.18476
C         -0.00847        -5.66670        -0.26383
C          1.23756        -4.96373        -0.36783
C          2.47773        -5.68557        -0.29970
C          3.72737        -4.97750        -0.32439
C          4.94267        -5.70375        -0.12245
C          6.25427        -4.98898        -0.32578
C          7.44710        -5.68004         0.30119
C          8.59092        -4.99172         0.59358
C         -7.40555        -7.09138         0.17960
C         -6.21051        -7.80577         0.05958
C         -4.99163        -7.09579        -0.15159
C         -3.77391        -7.85377        -0.46361
C         -2.45843        -7.09006        -0.54021
C         -1.21258        -7.83222        -0.30587
C         -0.00286        -7.11327        -0.22179
C          1.22808        -7.81510        -0.11336
C          2.46902        -7.09703        -0.11922
C          3.69144        -7.80385         0.05093
C          4.92990        -7.08931         0.06298
C          6.17879        -7.80446         0.29967
C          7.36876        -7.11429         0.43786
C         -6.15897        -9.25644         0.13330
C         -4.98784        -9.95377         0.06583
C         -3.71851        -9.29943        -0.16774
C         -2.50519        -9.95001        -0.12691
C         -1.23601        -9.25193        -0.19388
C         -0.01494        -9.93404        -0.03216
C          1.21934        -9.24130        -0.00219
C          2.46360        -9.92368         0.16109
C          3.67241        -9.23122         0.20533
C          4.93301        -9.91647         0.40037
C          6.11436        -9.24002         0.45625
O         -6.08023         7.87689        -2.13399
H         -6.02848         6.93575        -2.40625
O         -0.84582        -0.65251         1.65671
H         -0.85736        -1.58705         1.95845
O          2.50012        -2.91608        -2.42138
H          1.72431        -2.39685        -2.72598
O         -7.46121         3.43221         2.03767
O          3.69574         5.25951        -2.26050
H          4.48433         4.80464        -2.62644
O         -0.53494         7.50786         1.70828
O         -3.60550        -3.67062         1.89922
H         -3.73360        -2.76607         2.25879
O         -6.88580         0.91538         1.80744
O          6.51981        -5.07866        -1.78337
H          5.72340        -4.73850        -2.24657
O          8.27738         1.03031        -1.74115
O          7.76795        -2.98722         1.72523
O          0.50052         1.12974        -1.90199
O         -3.17449        -7.48460        -1.75810
O         -9.01477         1.25459        -1.29622
H         12.04377        -1.15835         0.63290
H         12.08596         1.28852         0.45520
H         10.83296         3.45156         0.21653
H          9.62901         5.57209         0.09061
H          8.40659         7.73016         0.08872
H          7.16676         9.88237         0.16378
H          5.02737        11.11792         0.19684
H          2.55280        11.12944         0.21696
H          0.06954        11.14060         0.14520
H         -2.46106        11.15344         0.05508
H         -4.93486        11.11323         0.11773
H         -7.03184         9.90869        -0.29871
H         -8.30513         7.70899        -0.33922
H         -9.51479         5.62505        -0.35602
H        -10.84633         3.49999         0.36785
H        -12.09816         1.26676        -0.00716
H        -12.03516        -1.17806         0.04216
H        -10.81467        -3.31597         0.03465
H         -9.58680        -5.47965         0.16949
H         -8.35721        -7.63245         0.28906
H         -7.10396        -9.79501         0.29841
H         -4.99402       -11.04746         0.18699
H         -2.48304       -11.03570         0.05517
H         -0.01735       -11.02922         0.07446
H          2.46149       -11.01933         0.26388
H          4.91715       -11.01028         0.51685
H          7.05496        -9.78643         0.62095
H          8.28093        -7.66186         0.72208
H          9.48173        -5.54116         0.93863
H         10.84433        -3.29959         0.58835
