         252
 CSIRO Nanostructure Databank - Neutral Graphene Oxide Data Set
C         30.57006        31.60977        -1.28820
C         30.68341        32.89319        -1.25443
C         30.69256        36.04382        -1.21886
C         30.60477        37.27033        -1.20701
C         30.85725        40.37810        -1.75466
C         30.93051        41.52727        -2.19993
C         32.66318        28.66182        -0.22234
C         31.72775        29.30631        -0.74793
C         32.76572        31.41474        -0.33500
C         31.52856        30.70906        -0.89574
C         32.77412        32.92704        -0.20830
C         31.65924        33.74130        -0.78652
C         32.78017        35.90391        -0.16306
C         31.74145        35.17317        -0.74496
C         32.72783        37.40096         0.00666
C         31.42393        38.23708        -0.40232
C         32.83652        40.39316        -0.33316
C         31.87986        39.43902        -1.21330
C         33.09511        41.73851        -1.01610
C         32.13272        42.35806        -2.03599
C         33.29345        44.43358        -1.60056
C         32.33333        43.80355        -2.05541
C         35.54552        27.07729         0.49327
C         35.22659        28.50683         0.50492
C         34.06621        29.13902        -0.19238
C         35.33695        31.45904        -0.09814
C         34.07614        30.65301        -0.30981
C         35.31783        32.97173        -0.00583
C         34.01867        33.69158         0.17647
C         35.31880        35.94060         0.59802
C         33.98584        35.18487         0.35020
C         35.32594        37.39050         0.08310
C         34.04113        38.16893         0.13867
C         35.35339        40.31175         0.00501
C         34.15495        39.63757        -0.12858
C         35.35280        41.81666         0.10496
C         34.11675        42.58044        -0.28389
C         35.53531        44.69418        -0.41147
C         34.13714        44.14271        -0.40005
C         35.82092        46.07003        -0.49587
C         37.90541        27.27580         1.12358
C         36.61585        26.70204         1.04362
C         37.85002        28.65614         0.81847
C         36.54350        29.35004         0.66561
C         37.76582        31.50000         0.36910
C         36.58305        30.77710         0.28158
C         37.75441        32.96040         0.32300
C         36.56485        33.68018         0.31763
C         37.83369        35.85842         0.35309
C         36.53036        35.16791         0.00275
C         37.78715        37.30685         0.71576
C         36.62868        38.14085         0.21839
C         37.72659        40.38180         0.66653
C         36.60740        39.63358         0.34168
C         37.78461        41.81706         0.42638
C         36.64487        42.54194         0.16834
C         37.93604        44.68559         0.26368
C         36.70590        43.98777        -0.02554
C         37.96799        46.17299         0.37727
C         36.75294        46.82324        -0.14123
C         40.47361        24.70836         1.94175
C         39.35392        25.22290         1.79125
C         40.40087        27.20965         0.94814
C         39.15914        26.71905         1.73589
C         40.31447        28.60971         0.42470
C         39.05592        29.38847         0.59138
C         40.24804        31.54131         0.31984
C         39.03851        30.79486         0.43494
C         40.22265        32.95084         0.43778
C         39.00792        33.66944         0.41582
C         40.34820        35.73974         0.27478
C         38.99442        35.11939         0.43524
C         40.27198        37.57537         1.78648
C         38.95745        37.96036         1.36482
C         40.24463        40.15707         0.50335
C         38.98378        39.92826         1.42226
C         40.37460        41.68973         0.36253
C         39.11103        42.49988         0.34228
C         40.40317        44.63469         0.60139
C         39.15494        43.98955         0.49610
C         40.56610        46.04987         0.34029
C         39.31217        46.87513         0.40370
C         40.62650        48.68770        -0.52998
C         39.56518        48.21199        -0.13113
C         43.08120        24.69557         1.78954
C         41.78329        25.21043         1.64270
C         42.91959        27.28330         0.82012
C         41.74575        26.57394         1.16244
C         42.90724        28.58047        -0.01183
C         41.56532        29.33929         0.01840
C         42.80891        31.62520        -0.25292
C         41.51061        30.83673        -0.05704
C         42.79426        32.95049         0.47946
C         41.50701        33.62886         0.75521
C         42.78149        35.87674         0.85042
C         41.48844        35.11462         1.10402
C         42.76473        37.32263         1.01531
C         41.54039        38.09815         1.22840
C         42.73562        40.21576         1.11922
C         41.50244        39.46466         0.95710
C         42.77134        41.68443         1.01694
C         41.63364        42.37617         0.76072
C         42.94527        44.47447         0.78145
C         41.60552        43.85559         1.09093
C         43.08645        45.86919         0.21426
C         41.78780        46.60728        -0.01322
C         43.12101        48.65325         0.06162
C         41.96273        48.04015        -0.67767
C         44.09999        25.37199         1.46775
C         45.41636        27.38874         0.66324
C         44.20893        26.67251         0.95847
C         45.39626        28.80966         0.44170
C         44.12002        29.47431         0.26755
C         45.25494        31.67029         0.19361
C         44.07818        30.86626         0.13226
C         45.21313        33.09035         0.12488
C         44.01196        33.77692         0.33145
C         45.12733        35.93843        -0.02578
C         43.94951        35.20740         0.43095
C         45.00856        37.39832        -0.09637
C         43.92657        38.02941         0.66566
C         45.29042        40.20680         0.70808
C         44.05057        39.44421         0.97166
C         45.32528        41.60630         1.11088
C         44.04398        42.34956         1.52751
C         45.35613        44.52381         1.25395
C         44.08954        43.81112         1.11830
C         45.35626        45.90651         1.32177
C         44.05630        46.66178         1.22273
C         44.02560        48.02490         0.62069
C         47.80202        27.54253         0.51637
C         46.73337        26.89720         0.68597
C         47.89591        28.93960         0.31696
C         46.61210        29.54192         0.32892
C         47.63056        31.64572        -0.56393
C         46.61399        31.04641         0.40364
C         47.48595        33.09211        -0.89799
C         46.50444        33.86576        -0.02855
C         47.46505        36.08774        -0.85393
C         46.30431        35.32073        -0.40832
C         47.49937        37.46329        -0.75382
C         46.27295        38.20056        -0.38583
C         47.73513        40.14785         0.30277
C         46.39510        39.55197         0.19874
C         47.78428        41.58378         0.80076
C         46.51713        42.28701         1.09465
C         47.93033        44.40155         1.47141
C         46.57034        43.69484         1.65584
C         47.68857        45.77800         1.73154
C         46.64446        46.46262         1.67704
C         50.42201        29.32839         0.11796
C         49.08046        29.71890         0.02033
C         50.10515        31.74616        -1.03604
C         48.98111        31.01698        -0.57880
C         49.84205        32.95674        -1.95806
C         48.62533        33.84044        -1.54308
C         49.84338        36.11244        -1.75164
C         48.61538        35.35551        -1.47917
C         49.84007        37.58299        -1.74898
C         48.58453        38.36337        -1.35135
C         50.06619        40.28630        -0.50224
C         48.87588        39.60190        -0.48992
C         50.22472        41.56835         0.19974
C         48.95990        42.41015         0.31960
C         50.44147        44.06762         1.21713
C         49.06871        43.73300         1.12788
C         51.46319        29.96155        -0.21866
C         52.46417        32.08431        -1.34249
C         51.43377        31.20609        -0.86394
C         52.31238        33.12174        -2.00411
C         51.09109        33.87484        -2.27734
C         52.23970        36.21945        -2.03906
C         51.04964        35.37632        -2.19995
C         52.28287        37.40460        -1.67854
C         51.16784        38.35699        -1.78790
C         52.47968        40.15236        -0.55247
C         51.25917        39.81025        -1.38718
C         52.55279        41.22713         0.06740
C         51.49454        42.08747         0.50829
C         51.50193        43.42882         1.03683
O         50.95254        34.63037        -3.47125
O         37.92296        37.46100         2.20817
O         50.43786        38.15805        -3.00949
O         34.34039        29.77695        -1.46283
O         32.41957        32.05641         0.93001
O         48.14300        34.58740        -2.69979
O         40.57971        36.45257        -0.69385
O         48.10567        40.49294         1.69536
O         40.11004        27.42340        -0.45827
O         41.29649        30.00432        -1.25956
O         43.50094        39.76886         2.30192
O         36.12550        37.68577        -1.08315
O         39.03844        40.23379         2.63644
O         34.32950        42.23354         1.10441
O         45.21691        38.04352        -1.39885
O         33.21339        37.84263         1.31181
O         39.84517        42.14216        -0.92632
O         35.45579        32.31019        -1.30781
O         46.97671        32.07031        -1.79891
O         35.56949        29.13278         1.76163
O         38.54336        46.70546         1.59315
O         42.23662        32.88288         1.83145
O         33.32900        41.64635        -2.46466
O         33.77651        34.28070         1.49700
O         51.26188        40.60840        -2.55480
H         51.16545        40.02575        -3.33994
O         35.51449        36.04662         2.01224
H         34.95877        35.36200         2.45250
O         32.64713        38.94040        -2.29358
H         32.93392        39.70563        -2.84684
O         32.24969        40.68455         0.92446
H         32.26302        39.87526         1.48360
O         43.78941        45.73228        -1.03077
H         43.53618        46.47819        -1.62548
O         43.08569        28.12706        -1.37740
H         42.22257        27.77823        -1.69153
O         43.44953        46.67916         2.50374
H         44.08144        47.04934         3.15423
O         36.33762        35.19817        -1.43631
H         37.09379        34.74850        -1.86875
O         42.91457        31.96063        -1.64915
H         42.65867        31.15816        -2.16015
O         30.72659        38.62997         0.74987
H         30.41667        37.83431         1.22874
O         40.35160        37.32589         3.09144
H         39.44576        37.12858         3.42775
O         49.47929        32.36210        -3.20464
H         49.05250        33.05860        -3.75332
O         47.99327        38.89487        -2.56063
H         47.86091        38.15906        -3.19515
O         43.96211        42.33322         2.98874
H         43.85781        41.38152         3.24506
O         42.30626        47.84162        -2.03368
H         42.49757        48.70927        -2.44697
O         33.49808        44.67997         0.75629
H         33.61446        44.03760         1.49327
O         48.59866        42.82859        -1.02064
H         49.39667        43.18104        -1.46864
O         47.06045        31.37325         1.75368
H         46.49545        30.88786         2.39044
O         41.14625        35.14152         2.50335
H         41.65310        34.41099         2.92762
O         47.18085        33.94991         1.26753
H         46.52136        34.19800         1.94866
O         39.90028        39.59399        -0.77782
H         39.80069        40.34215        -1.41494
O         46.48283        43.52806         3.10096
H         45.60007        43.12704         3.30876
O         41.46425        43.90204         2.54888
H         42.26693        43.48825         2.94854
O         39.26793        27.24218         3.06087
H         38.46102        27.00668         3.56506
