         272
 CSIRO Nanostructure Databank - Neutral Graphene Oxide Data Set
C        -11.03691         0.22873         0.82560
C         -9.88468         1.03713         0.41132
C         -8.68782         0.44099        -0.21377
C         -7.33705         1.00369         0.11177
C         -6.12917         0.45442        -0.62079
C         -4.79900         1.19139        -0.60677
C         -3.70493         0.77201        -1.56640
C         -2.41550         1.55071        -1.57485
C         -1.14663         0.89357        -2.16460
C          0.17596         1.55896        -1.66438
C          1.32247         0.80277        -1.03646
C          2.38682         1.55850        -0.25597
C          3.46775         0.83646         0.49897
C          4.76940         1.57544         0.77862
C          6.06469         0.85681         0.64491
C          7.21901         1.57250         0.00386
C          8.45590         0.79112        -0.35104
C          9.68301         1.52641        -0.78474
C         10.95720         0.74445        -0.77957
C         -9.82755         2.35617         0.75869
C         -8.66700         3.18697         0.27801
C         -7.32706         2.45285         0.51357
C         -6.07685         3.26869         0.27269
C         -4.75470         2.59622        -0.06142
C         -3.54598         3.47400        -0.32947
C         -2.21370         2.74048        -0.61808
C         -1.17512         3.69564        -1.21990
C          0.16455         3.10983        -1.70252
C          1.30953         3.75383        -0.89153
C          2.59748         3.00180        -0.67300
C          3.77360         3.76583        -0.14816
C          4.73581         3.11202         0.82435
C          6.15185         3.78195         0.71735
C          7.25962         3.05863        -0.00782
C          8.51781         3.73760        -0.45238
C          9.61733         3.01815        -0.79902
C         -8.62411         4.59571         0.84395
C         -7.52755         5.33462         0.56606
C         -6.50345         4.62323        -0.28630
C         -4.33021         4.99930         1.57235
C         -3.43988         4.80270         0.37417
C         -2.03674         5.49117         0.39605
C         -1.19439         5.14592        -0.84416
C          0.07018         5.99752        -1.21567
C          1.30194         5.24127        -0.71666
C          2.61679         5.98533        -0.72396
C          3.75063         5.27534        -0.03350
C          4.98432         6.03901         0.36658
C          6.25715         5.27397         0.70228
C          7.65550         5.91259         0.43809
C          8.36860         5.23157        -0.76341
C         -7.24590         6.74206         0.87321
C         -6.04172         7.11573         1.40681
C         -5.32025         5.97894         2.09883
C         -2.91672         7.47772         1.78600
C         -2.18051         6.98762         0.57666
C         -1.11523         7.93793         0.12734
C          0.05941         7.45733        -0.67582
C          1.34297         8.23605        -0.57836
C          2.64732         7.48702        -0.79069
C          3.93807         8.23248        -0.50692
C          5.22614         7.37228        -0.37410
C          6.39614         8.10841         0.25542
C          7.55121         7.41919         0.44256
C         -5.81578         8.54551         1.65082
C         -4.69728         9.30957         1.80106
C         -3.30142         8.91584         1.70079
C         -2.27440         9.74797         1.36637
C         -0.93340         9.06706         1.15611
C          0.26912         9.92972         0.90688
C          1.36462         9.48844         0.25208
C          2.57926        10.39123         0.18812
C          3.90580         9.64815        -0.01434
C          5.13140        10.19675         0.61976
C          6.28979         9.50269         0.65430
C        -11.29620        -1.07987         0.56056
C        -10.48610        -1.86206        -0.36723
C         -8.75248        -0.67315        -0.98270
C         -7.59683        -1.44175        -1.51125
C         -6.30100        -0.69615        -1.58666
C         -5.03749        -1.43200        -1.95344
C         -3.75729        -0.60399        -2.27367
C         -2.43678        -1.45202        -2.18999
C         -1.12392        -0.66890        -2.06317
C          0.07893        -1.40482        -1.52507
C          1.13647        -0.66335        -0.72716
C          2.23039        -1.40023         0.00157
C          3.47938        -0.70240         0.59964
C          4.78548        -1.31912         0.10278
C          6.05986        -0.58383         0.25530
C          7.34276        -1.30220         0.55477
C          8.60944        -0.56325         0.26644
C          9.87877        -1.34206         0.08102
C         11.00976        -0.58603        -0.53923
C        -10.01604        -3.12380        -0.23056
C         -8.90974        -3.75471        -1.02222
C         -7.67673        -2.96976        -1.50223
C         -6.33381        -3.73686        -1.39075
C         -5.05441        -2.90934        -1.72342
C         -3.73519        -3.51117        -1.32777
C         -2.45114        -2.95368        -1.93523
C         -1.14677        -3.78901        -1.72261
C          0.09870        -2.92062        -1.42617
C          1.27235        -3.63648        -0.83916
C          2.28845        -2.93995         0.04901
C          3.65332        -3.58596        -0.22319
C          4.89656        -2.81679        -0.00619
C          6.07086        -3.50496         0.63590
C          7.38692        -2.78804         0.69816
C          8.63427        -3.52225         0.35629
C          9.77288        -2.83372         0.06392
C         -8.88591        -5.22819        -0.71298
C         -7.95816        -6.15654        -0.87052
C         -6.16302        -4.37085         0.00988
C         -5.00974        -5.35717         0.06915
C         -3.75604        -4.76915        -0.51285
C         -2.56858        -5.65459        -0.66709
C         -1.28977        -4.89015        -0.64320
C         -0.11771        -5.60823        -0.07317
C          1.21340        -5.17170        -0.66686
C          2.34205        -5.70398         0.18544
C          3.67946        -5.07614         0.00352
C          4.88610        -5.77533         0.50792
C          6.07292        -4.96332         0.92524
C          7.41813        -5.66273         1.15976
C          8.49607        -5.04427         0.19823
C         -7.27110        -7.27831        -0.71703
C         -6.47710        -7.45582         0.57979
C         -5.08526        -6.83196         0.34520
C         -3.95181        -7.74225        -0.07298
C         -2.61741        -7.13286        -0.44668
C         -1.31364        -7.88903        -0.15220
C         -0.25358        -7.03011         0.55237
C          0.99815        -7.89688         0.24049
C          2.26512        -7.13275         0.57271
C          3.55441        -7.87708         0.72882
C          4.76184        -7.08267         1.31530
C          6.07434        -7.85216         1.20190
C          7.25780        -7.18739         1.06734
C         -6.37413        -8.88667         1.07012
C         -5.23948        -9.60119         1.11697
C         -3.99130        -9.14817         0.45087
C         -2.71236        -9.80099         0.78057
C         -1.48243        -9.20650         0.59721
C         -0.28696        -9.85457         1.04532
C          0.98304        -9.26264         0.90300
C          2.17695        -9.92184         1.23108
C          3.50797        -9.35450         1.02227
C          4.77771        -9.95931         1.49110
C          5.96062        -9.29017         1.45289
O          5.70909        -4.02487         1.97316
O         -7.19939        -0.67358        -2.72903
O          1.31972         1.08324        -2.45088
O          2.30901         1.39314         1.19144
O         -6.56113         2.96166         1.62083
O         -0.65217        -8.20228        -1.42693
O         -2.67832        -6.56866        -1.79497
O         -2.38229         7.86356        -0.57368
O         -3.93314         4.71817        -0.96713
O          8.76335         0.87694        -1.76478
O         -5.72198         5.70793         3.24664
O         -3.44313         1.82884        -2.54259
O          3.90609         5.87982         1.30834
O         -6.77115        -3.98003         0.98280
O         -8.65997        -3.47748        -2.44061
O         -5.19169        -2.38572        -3.05802
O          0.45056         8.39928        -1.72444
O          3.74727         3.27063        -1.51526
O          4.51715        -6.74825         2.62275
O          6.67614         2.31671        -1.13417
O          9.54872        -0.67668         1.36819
O         -0.05465        -1.10478        -2.94824
O          4.11329         9.33346        -1.43291
O         -1.81258         4.68074        -2.06524
O          7.39232        -1.91316         1.87573
O         -0.79677        -4.56013         0.67832
O         -9.99211        -1.10777        -1.45122
O          2.01362        -6.07833         1.55335
O          1.27255        -3.30016        -2.23587
O         -6.24811         5.00207        -1.40607
O          6.36282         4.52420         1.95514
O         -2.48406        -2.43426        -3.27987
O          5.43563        -0.72390        -1.06002
O         -4.70544        -5.90928         1.40112
O          4.46741        -3.20645        -1.35501
O         -3.17829         6.72554         2.72409
O          5.54491         1.13457         1.96595
O         -6.46631         0.04498         0.75856
O          0.96583         4.37607         0.39357
O          4.57743        -5.82085        -0.89525
O          1.01756        -0.93812         0.69329
O          0.82478        -8.14213        -1.19297
O         -4.28036        -8.82586        -0.97808
O         -3.51824        -3.47221         0.12907
O          3.74721        -8.75504        -0.36218
O          2.79837         6.67219        -1.98609
O         -4.37547         1.46059         0.77063
O          5.58813         7.00159        -1.68108
O          7.87182        -5.38681         2.49408
H          7.11958        -4.99422         2.99419
O         -8.75189         3.28033        -1.17163
H         -9.61968         3.66539        -1.41397
O          7.63606         5.34125        -1.96412
H          6.91881         6.04309        -1.90737
O          0.38424         3.47628        -3.06117
H         -0.28975         3.01953        -3.61476
O         -6.32068        -4.81945        -2.33083
H         -6.83263        -4.53571        -3.12100
O          1.38018        -5.77913        -1.94689
H          0.80967        -5.30600        -2.60182
O          8.53685         5.60649         1.54396
H          7.98512         5.24591         2.27825
O         -7.14183        -6.72353         1.61275
H         -6.47523        -6.15182         2.06277
O          8.10716        -5.28231        -1.15585
H          7.94543        -6.24064        -1.27790
O          3.43143        -1.02208         2.00976
H          2.76050        -0.42618         2.41412
O         -0.54641        -6.93422         1.93245
H          0.10892        -6.31990         2.33680
O         -0.64226         8.32463         2.38660
H         -0.34585         8.95949         3.07349
O         -0.92264        -4.49198        -2.94910
H         -0.98550        -3.84082        -3.68420
O         -3.88487        -0.27148        -3.65580
H         -3.95286        -1.11457        -4.15692
O          1.95789        -3.31335         1.39868
H          2.45068        -2.71488         2.01100
O         -1.31654         5.00638         1.52843
H         -1.73813         5.34844         2.34961
O         -1.18137         1.18335        -3.56809
H         -0.45665         0.66227        -3.98346
O          0.17343         6.06328        -2.62435
H         -0.55312         6.61385        -2.97982
O          4.18800         3.41699         2.11004
H          4.75184         2.98567         2.78737
O          2.60669        11.18834         1.37103
H          3.16586        11.97429         1.21017
O         -1.70855         2.23758         0.62658
H         -2.45109         1.81223         1.11805
O         -4.08874         4.06900         2.48908
H         -4.68467         4.30466         3.26466
H         11.96430        -1.11917        -0.67114
H         11.86439         1.26120        -1.13006
H         10.50193         3.55514        -1.17868
H          9.39237         5.69291        -0.87713
H          8.43020         7.94774         0.84553
H          7.18797         9.96920         1.08792
H          5.09935        11.22537         1.00814
H          2.44544        11.07211        -0.70179
H          0.33267        10.88540         1.45099
H         -2.41026        10.82962         1.21978
H         -4.86421        10.39512         1.89342
H         -6.75646         9.12277         1.61802
H         -7.97888         7.50690         0.56555
H         -9.47357         4.99114         1.42182
H        -10.66151         2.83789         1.29084
H        -11.72829         0.75018         1.50753
H        -12.13476        -1.57137         1.07738
H        -10.36611        -3.72009         0.62447
H         -9.86191        -5.60128        -0.34378
H         -7.09179        -7.97153        -1.55455
H         -7.28714        -9.28944         1.53279
H         -5.23227       -10.59971         1.58049
H         -2.76054       -10.76773         1.30608
H         -0.37133       -10.85634         1.49450
H          2.10935       -10.89784         1.73856
H          4.76084       -11.02011         1.78366
H          6.88365        -9.83402         1.70951
H          8.19586        -7.76891         1.08681
H          9.49053        -5.53141         0.40465
H         10.66874        -3.39236        -0.25183
