         276
 CSIRO Nanostructure Databank - Neutral Graphene Oxide Data Set
C        -11.29790         0.64801        -0.09824
C        -10.10465         1.49108        -0.07555
C         -8.79909         0.81230        -0.47142
C         -7.63113         1.41135         0.32463
C         -6.37320         0.64459         0.49998
C         -5.09579         1.38144         0.81513
C         -3.82673         0.67883         0.38407
C         -2.56353         1.35005         0.97571
C         -1.29672         0.73382         0.30709
C         -0.01046         1.35307         0.81210
C          1.26547         0.63063         0.33067
C          2.48869         1.34983         0.85575
C          3.84110         0.68928         1.03193
C          4.96264         1.38988         0.26146
C          6.25199         0.67145         0.19461
C          7.53312         1.44864         0.06872
C          8.82745         0.74507         0.34649
C         10.02369         1.47176        -0.15261
C         11.18067         0.64897        -0.47745
C        -10.10175         2.84176         0.13332
C         -8.84961         3.64572        -0.01920
C         -7.54865         2.89400         0.10490
C         -6.25929         3.61331         0.39770
C         -5.07989         2.86717         0.94060
C         -3.77880         3.58771         0.86218
C         -2.62249         2.87070         0.87186
C         -1.32574         3.56852         0.71184
C         -0.06173         2.83057         1.04192
C          1.23403         3.52462         0.71654
C          2.36785         2.67686         1.23979
C          3.79737         3.51062        -0.53827
C          4.96485         2.67326        -0.17672
C          6.19138         3.50010        -0.33418
C          7.52347         2.95750         0.07118
C          8.81864         3.68421        -0.17169
C          9.97690         2.82171        -0.41200
C         -8.76644         5.12320         0.11507
C         -7.57854         5.81428         0.22655
C         -6.27281         5.11060         0.41758
C         -5.10430         5.85704         1.00850
C         -3.79321         5.05138         1.35434
C         -2.50889         5.84217         0.96707
C         -1.28558         5.05470         0.56882
C          0.05575         5.80867         0.61660
C          1.24534         4.93135         0.16590
C          2.50423         5.65716        -0.41382
C          3.82459         4.98492         0.02158
C          5.00778         5.64598        -0.67433
C          6.03301         4.80824        -1.04420
C          7.95784         6.11490         0.13266
C          8.97231         5.05643        -0.16479
C         -7.49104         7.24667         0.01540
C         -6.30184         7.94618         0.04393
C         -5.07356         7.35137         0.63413
C         -3.79297         8.01904         0.41332
C         -2.51826         7.30019         0.58102
C         -1.39429         7.84526        -0.30059
C         -0.06582         7.08933        -0.24287
C          1.19673         7.78250        -0.65320
C          2.51519         7.18700        -0.16156
C          3.74025         7.82569        -0.93781
C          5.06269         7.16077        -0.47995
C          6.32566         7.85024        -1.05829
C          7.68847         7.16239        -0.72113
C         -6.20227         9.32123        -0.39462
C         -5.01485         9.98762        -0.43963
C         -3.74743         9.34635        -0.10899
C         -2.53454        10.03323        -0.21882
C         -1.20007         9.36479         0.04870
C         -0.07570         9.98044        -0.72929
C          1.21630         9.26829        -1.06675
C          2.51815         9.95877        -0.62583
C          3.71493         9.31242        -0.64417
C          5.02221         9.95815        -0.49939
C          6.20504         9.32375        -0.69113
C        -11.30048        -0.65768        -0.46244
C        -10.05522        -1.42719        -0.85650
C         -8.84459        -0.71859        -0.25682
C         -7.59029        -1.48726        -0.12426
C         -6.28079        -0.70863        -0.20133
C         -5.07347        -1.50573         0.19429
C         -3.90135        -0.80376         0.82538
C         -2.58801        -1.53292         0.56333
C         -1.27613        -0.80827         0.44584
C          0.01009        -1.49214         0.84044
C          1.20471        -0.82465         0.81933
C          2.50473        -1.49729         1.12221
C          3.80660        -0.81655         0.80884
C          4.98746        -1.48765         0.71945
C          6.30740        -0.73070         0.79971
C          7.50070        -1.48304         0.17136
C          8.82305        -0.74944         0.51215
C         10.16138        -1.50430         0.42956
C         11.21636        -0.69368        -0.30767
C        -10.02504        -2.87711        -0.41921
C         -8.85811        -3.63588        -0.50473
C         -7.52305        -2.88876        -0.73450
C         -6.33810        -3.64816        -0.12654
C         -4.99140        -2.94012        -0.24572
C         -3.87860        -3.72108         0.43953
C         -2.65558        -2.99371         0.87924
C         -1.35361        -3.72111         1.03585
C         -0.06278        -2.95587         1.16733
C          1.23539        -3.76563         1.16863
C          2.52706        -2.99699         1.22816
C          3.79029        -3.66306         0.74450
C          5.08812        -2.95531         1.11857
C          6.35967        -3.65965         0.63896
C          7.51469        -2.98137         0.41143
C          8.75119        -3.69738        -0.01573
C         10.04080        -2.93772        -0.08986
C         -8.82683        -5.04136        -0.53315
C         -7.53869        -5.76075        -0.85398
C         -6.34676        -5.13125        -0.13258
C         -5.08899        -5.97537         0.08853
C         -3.79084        -5.18076         0.15495
C         -2.59163        -5.81683         0.11913
C         -1.30735        -5.07752         0.36102
C         -0.00051        -5.79189         0.17712
C          1.24441        -5.22959         0.83487
C          2.57967        -5.98514         0.68664
C          3.77053        -5.09328         0.35127
C          5.05823        -5.86072         0.41099
C          6.36021        -5.14685         0.60681
C          7.59377        -5.88156         0.21643
C          8.74181        -5.17639        -0.00997
C         -7.48995        -7.27060        -0.78303
C         -6.29567        -7.91245        -0.90130
C         -5.02515        -7.07064        -0.98331
C         -3.72612        -7.87290        -0.88256
C         -2.57985        -7.33211        -0.02592
C         -1.27960        -7.96392        -0.48765
C         -0.00261        -7.23800        -0.27503
C          1.23580        -8.04076         0.08045
C          2.44500        -7.15905        -0.31836
C          3.76198        -7.91986        -0.48232
C          5.06577        -7.22801        -0.19719
C          6.31968        -8.00765        -0.05092
C          7.51140        -7.33225         0.10998
C         -6.18946        -9.36533        -0.99193
C         -5.01775       -10.03772        -1.09950
C         -3.70090        -9.36235        -1.05114
C         -2.45408       -10.11208        -0.72565
C         -1.25893        -9.45770        -0.56587
C          0.03926       -10.10727        -0.64548
C          1.23958        -9.43685        -0.51116
C          2.52642       -10.08223        -0.61129
C          3.73032        -9.40278        -0.52019
C          5.00923       -10.07159        -0.47079
C          6.20492        -9.43358        -0.24680
O         -1.95869        -1.36926        -0.73770
O         -0.03539         1.90695         2.15504
O         -5.82251         4.37998        -0.77491
O         -8.05715         3.20379        -1.21048
O         -8.54190         1.07293        -1.80777
O          6.87545         0.91273        -1.11245
O          0.46601         6.94736        -1.59810
O         -3.82473         4.88631         2.72109
O         -3.39663        -8.41857        -2.18386
O          4.55245        -7.30710        -1.57044
O          3.66342        -4.06828        -0.66801
O         -6.67285        -4.37293         1.08654
O          4.25064         0.88398         2.38764
O         -7.31892        -2.72920        -2.13013
O         -8.44165        -1.27019         1.02759
O          8.86048         0.13456         1.67878
O         -5.41115         6.83219         1.99176
O         -5.17267         2.01207         2.13144
O         -3.67627        -3.38656         1.84659
O          5.66712        -5.80603         1.73066
O          6.71465         3.60701         1.11287
O          7.31633        -1.41637        -1.25956
O         -0.50748        -4.91835        -0.87223
O         -0.82553        -3.40067         2.34767
O          2.59900        -2.18605         2.42307
O          1.02167         3.80145        -0.71251
O         -0.56082        -7.37546        -1.60727
O          1.12653        -4.80217         2.21450
O         -7.33558         0.82283         1.59689
O         -1.38483         4.24074        -0.61995
O          3.14159         3.17297        -1.51056
O         -2.18336         6.87865         1.93700
O         -4.69432        -2.91875        -1.66748
H         -5.56906        -2.86495        -2.15529
O          2.56133         7.51356         1.21701
H          3.44552         7.23934         1.56986
O         -9.90465        -1.42744        -2.29214
H         -9.00901        -1.80854        -2.50179
O         -6.12762        -0.41284        -1.62819
H         -6.54086        -1.18371        -2.13208
O          1.14224        -8.28742         1.50364
H          1.93184        -7.91459         1.96908
O          7.36328         6.04280         1.35863
H          7.39317         5.10893         1.68972
O          0.36050         6.14954         1.97002
H         -0.39614         6.66300         2.34608
O          5.16231        -2.97604         2.56114
H          5.75244        -2.23069         2.83465
O          2.44214         5.54836        -1.83331
H          2.10030         4.65284        -2.06979
O         10.66637        -1.66803         1.77789
H         10.35760        -0.88163         2.28852
O          6.50280        -0.57284         2.22711
H          5.72530        -0.01539         2.54474
O         -0.89746         9.38914         1.47285
H         -0.62141        10.29596         1.71977
O          2.94636        -6.52579         1.97888
H          2.60147        -5.89155         2.65693
O         -7.50692        -5.41589        -2.27130
H         -7.39510        -4.41713        -2.38511
O         -4.99698        -6.37883        -2.24293
H         -4.56771        -6.98189        -2.89295
O          3.98526         5.10137         1.43077
H          4.87697         4.77246         1.67539
O         -1.27249         1.06859        -1.09074
H         -2.01634         0.58819        -1.53369
O          2.10372        -6.58361        -1.58391
H          2.93990        -6.41591        -2.07766
O          6.24905         7.72323        -2.50196
H          6.79545         8.42640        -2.90988
O          5.11584         7.40740         0.94470
H          5.94258         7.00373         1.30857
O          1.28033         9.27413        -2.52789
H          0.62924         8.60466        -2.84077
O          9.32758        -3.14831        -1.31900
H          7.99720        -1.99837        -1.67949
O          1.32432         0.60051        -1.10613
H          0.41670         0.77888        -1.46584
O         -3.77919         0.77672        -1.04649
H         -4.56574         0.33119        -1.46001
O         -2.78474        -7.85661         1.31495
H         -3.64800        -7.50015         1.64721
O          3.61680         7.66387        -2.34665
H          2.81477         8.15165        -2.65135
O          6.89321         5.04281        -2.06268
H          6.66095         5.91329        -2.48293
O         -1.91535         7.77677        -1.63555
H         -1.21818         7.37422        -2.20775
O         -2.48190         1.04934         2.37074
H         -3.21247         1.51669         2.83566
O         -5.25491        -6.63007         1.37350
H         -5.52483        -5.93084         2.01266
O          3.06920         3.14201         2.26547
H          3.65820         2.38318         2.59806
O         -4.13998        -0.86319         2.25209
H         -4.96446        -0.37880         2.47198
H         12.12862        -1.23743        -0.59890
H         12.04393         1.15564        -0.93728
H         10.89100         3.31136        -0.78549
H          9.96990         5.42812        -0.46024
H          8.33999         7.16221        -1.61370
H          7.13587         9.90579        -0.59612
H          5.02779        11.03406        -0.25847
H          2.47754        11.04698        -0.46086
H         -0.35882        10.75822        -1.46081
H         -2.55630        11.10720        -0.46353
H         -4.98674        11.03106        -0.78534
H         -7.12522         9.82848        -0.71246
H         -8.40203         7.76749        -0.31845
H         -9.69773         5.69776        -0.01235
H        -11.03662         3.37761         0.36070
H        -12.25600         1.12591         0.16296
H        -12.25949        -1.19874        -0.48958
H        -10.95332        -3.35299        -0.05879
H         -9.77038        -5.57930        -0.73314
H         -8.43370        -7.83839        -0.76569
H         -7.13366        -9.93236        -0.99006
H         -5.02963       -11.13685        -1.16057
H         -2.48213       -11.21066        -0.80049
H          0.05347       -11.17633        -0.91498
H          2.54923       -11.17794        -0.73093
H          5.00988       -11.16636        -0.58662
H          7.12703       -10.03270        -0.20420
H          8.45618        -7.89779         0.09159
H          9.66501        -5.69499        -0.30838
H         10.98778        -3.52008        -0.01932
