         480
 CSIRO Nanostructure Databank - Neutral Graphene Oxide Data Set
C         38.12033        50.68929         2.88090
C         36.88317        51.29599         2.66949
C         38.01790        53.34095         2.06458
C         36.83654        52.63490         2.27402
C         40.75638        49.42587         2.18989
C         40.61351        50.68335         3.02820
C         39.31835        51.39837         2.69758
C         40.52982        53.44404         1.94157
C         39.27780        52.73729         2.25930
C         40.49118        54.74551         1.40275
C         43.10459        49.28093         2.95369
C         41.90232        48.73444         2.19415
C         43.14122        50.75443         2.61381
C         41.91174        51.56802         2.96576
C         42.97357        53.46166         1.68830
C         41.78042        52.81491         2.11447
C         42.90568        54.78641         1.18474
C         41.66440        55.41932         1.08116
C         45.47693        46.36239         2.48720
C         44.35547        47.13395         2.80087
C         45.52556        49.16471         2.14836
C         44.35916        48.51874         2.60653
C         45.50312        50.60092         1.89633
C         44.27291        51.36046         2.07177
C         45.41945        53.38919         1.20759
C         44.24162        52.75515         1.70293
C         45.40752        54.76231         0.80089
C         44.14883        55.60091         0.90953
C         45.11584        57.03650        -0.87476
C         44.03220        56.45578        -0.34753
C         47.96857        44.76582         2.14486
C         47.80586        46.12543         1.50667
C         46.64697        46.96592         2.01780
C         47.92342        49.02851         1.49135
C         46.68573        48.37672         1.87290
C         47.94214        50.51287         1.48236
C         46.65714        51.25353         1.46853
C         47.76667        53.23820         0.45988
C         46.63579        52.63836         1.09331
C         47.68055        54.55866        -0.03895
C         46.53262        55.34687         0.21175
C         47.64199        57.28370        -1.07168
C         46.46696        56.80539        -0.23130
C         47.64857        58.66333        -1.51518
C         50.48175        44.88469         2.15047
C         49.15685        44.17781         2.33336
C         50.32497        46.20025         1.43370
C         49.11642        46.87781         1.45127
C         50.42608        48.99359         1.17494
C         49.08051        48.30410         1.25610
C         50.35672        50.39441         0.64189
C         49.18472        51.21654         1.02369
C         50.08357        53.02696        -0.36332
C         49.02395        52.52499         0.35216
C         49.91508        54.17890        -1.25001
C         48.67515        55.02809        -1.02408
C         49.93474        57.04583        -1.95022
C         48.69389        56.46406        -1.39283
C         49.98255        58.53028        -2.30607
C         48.69851        59.23304        -2.17017
C         52.85317        41.89970         1.64558
C         51.76525        42.73670         2.06825
C         52.55379        44.57237         0.66598
C         51.58742        44.00888         1.58498
C         52.54941        45.91820         0.33428
C         51.48881        46.79137         0.79444
C         52.53853        48.77208        -0.24655
C         51.47458        48.14874         0.49867
C         52.54289        50.15658        -0.44554
C         51.44049        50.96167         0.03049
C         52.60148        53.05950        -0.88931
C         51.42380        52.41783        -0.24934
C         52.46366        54.21011        -1.80169
C         51.09992        54.72736        -2.01011
C         52.20400        56.76070        -3.08344
C         50.99393        56.15253        -2.50469
C         52.06496        58.08845        -3.59754
C         51.09617        59.01187        -3.19436
C         52.49631        61.08546        -3.61771
C         51.28939        60.40990        -3.43566
C         54.98605        40.12860         0.82342
C         54.83253        41.43459         0.10099
C         53.73836        42.31180         0.69457
C         54.85326        44.27933        -0.49754
C         53.60392        43.66794         0.13046
C         54.91941        45.76028        -0.55151
C         53.58811        46.48125        -0.60901
C         54.90498        48.60431        -0.82439
C         53.70464        47.97945        -0.56552
C         54.94651        49.98505        -1.30591
C         53.64467        50.79569        -1.17442
C         55.03189        52.96479        -1.45543
C         53.74964        52.23856        -1.23790
C         54.92351        54.21477        -2.33200
C         53.57296        54.75623        -2.48750
C         55.27132        57.01435        -3.57601
C         53.30979        55.92928        -3.28920
C         55.15203        58.44391        -3.57717
C         54.00585        59.16495        -3.92056
C         54.98520        61.32129        -3.18755
C         53.81776        60.54192        -3.61704
C         54.93458        62.70629        -2.90543
C         57.44312        40.23090         0.75377
C         56.18686        39.58278         1.09117
C         57.41520        41.52079         0.19355
C         56.14639        42.20289        -0.02670
C         57.36158        44.25207        -0.89913
C         56.12503        43.51506        -0.42093
C         57.43089        45.68621        -0.35206
C         56.11397        46.40814        -0.57878
C         57.46073        48.58966        -0.90132
C         56.17180        47.88392        -0.61338
C         57.44306        49.99887        -1.36864
C         56.22990        50.71250        -1.45811
C         57.44408        52.78730        -1.96587
C         56.22508        52.09285        -1.74566
C         57.41754        54.20444        -2.21821
C         56.15192        54.89157        -2.53069
C         57.40330        57.06475        -2.28948
C         56.25825        56.29509        -2.90884
C         57.54461        58.47575        -2.81958
C         56.34790        59.23228        -3.26846
C         57.35694        61.36049        -2.46527
C         56.23799        60.67469        -3.00139
C         57.28847        62.76039        -2.21179
C         56.05662        63.40219        -2.46328
C         59.99567        37.55453         1.64994
C         58.75127        38.20709         1.41483
C         59.95962        40.24009         0.79189
C         58.68319        39.52962         1.00864
C         59.93506        41.60322         0.19219
C         58.63057        42.22652        -0.13410
C         59.88960        44.22078        -0.91293
C         58.64999        43.51514        -0.63101
C         59.83787        45.61758        -1.13227
C         58.65375        46.39881        -0.92301
C         59.90132        48.49603        -1.39582
C         58.67180        47.77529        -1.13714
C         59.90654        49.93736        -1.53712
C         58.67848        50.66488        -1.59580
C         59.91604        52.77341        -1.99749
C         58.67886        52.07204        -1.87822
C         59.90382        54.18011        -2.14447
C         58.67554        54.88461        -2.24699
C         59.91021        57.03388        -2.14029
C         58.72298        56.32817        -2.30631
C         59.90963        58.51259        -2.14749
C         58.64105        59.25893        -2.24030
C         59.69028        61.34557        -1.49124
C         58.56592        60.62014        -2.13066
C         59.67359        62.81647        -1.52484
C         58.48525        63.49296        -1.76491
C         59.48810        65.59880        -0.96207
C         58.42156        64.90380        -1.44370
C         62.62037        36.02903         1.56325
C         62.49661        37.49614         1.72282
C         61.20807        38.16458         1.40316
C         62.42229        40.11411         0.49525
C         61.24274        39.49252         0.83997
C         62.40948        41.33949        -0.34940
C         61.07854        42.00703        -0.71400
C         62.37365        44.14679        -1.13367
C         61.15232        43.51491        -0.89637
C         62.38383        45.54646        -1.58509
C         61.04542        46.31929        -1.58967
C         62.40544        48.47155        -1.30602
C         61.08733        47.77932        -1.51283
C         62.38664        49.93025        -1.66756
C         61.15130        50.63386        -1.71198
C         62.39393        52.76357        -1.81357
C         61.15679        52.04995        -1.89392
C         62.41293        54.18752        -1.82343
C         61.21406        54.91722        -2.36382
C         62.34560        57.05708        -1.59499
C         61.17755        56.37463        -1.97304
C         62.33368        58.47949        -1.33289
C         61.13138        59.23646        -1.71445
C         62.22822        61.36549        -0.91237
C         60.97918        60.63354        -1.22280
C         62.15970        62.79661        -0.84014
C         60.94299        63.51773        -1.28730
C         61.98971        65.66246        -0.28874
C         60.84420        65.04155        -0.98992
C         61.88419        66.98018         0.28978
C         65.02922        36.14955         2.21211
C         63.79659        35.40388         1.72438
C         65.05007        37.54205         1.60299
C         63.77734        38.29547         1.66137
C         64.98197        40.21405         0.49493
C         63.72491        39.75152         1.20292
C         64.96956        41.49515        -0.08856
C         63.68910        42.08362        -0.54343
C         64.86974        44.14586        -1.21423
C         63.66386        43.50385        -0.95950
C         64.87356        45.50046        -1.89722
C         63.63675        46.28601        -1.58963
C         64.87844        48.48140        -2.07775
C         63.58869        47.72247        -1.88218
C         64.87770        49.92065        -1.72050
C         63.61836        50.61820        -1.69859
C         64.81712        52.74561        -1.35510
C         63.61175        52.04714        -1.63938
C         64.78163        54.16140        -1.19429
C         63.57462        54.88638        -1.45989
C         64.72719        57.00415        -0.89397
C         63.58041        56.33051        -1.33239
C         64.78384        58.52206        -0.96887
C         63.43324        59.19562        -0.87882
C         64.51548        61.28958         0.10900
C         63.38093        60.62204        -0.64477
C         64.44578        62.79774         0.04706
C         63.28659        63.52735        -0.43375
C         64.39290        65.71573         0.19795
C         63.18413        64.95156        -0.17139
C         64.31568        67.17821         0.61835
C         62.94418        67.67500         0.79512
C         67.45835        33.21194         2.21931
C         66.33272        33.98134         2.31278
C         67.45579        36.01105         1.52823
C         66.31020        35.37812         1.99336
C         67.44578        37.37500         1.06452
C         66.20248        38.12177         1.09934
C         67.40321        40.09156         0.14939
C         66.18784        39.48875         0.58918
C         67.40276        41.44919        -0.30740
C         66.16611        42.14024        -0.46944
C         67.35490        44.16447        -1.22899
C         66.14109        43.48518        -0.99408
C         67.32826        45.58354        -1.56410
C         66.15761        46.27589        -1.72240
C         67.39294        48.47313        -1.63368
C         66.20509        47.72393        -2.21080
C         67.34306        49.91315        -1.39397
C         66.06788        50.60662        -1.45157
C         67.18971        52.70613        -0.71926
C         66.03298        52.01933        -1.17466
C         67.11096        54.09664        -0.46201
C         65.94596        54.84678        -0.75879
C         67.08595        56.93946        -0.09818
C         65.92231        56.27804        -0.56990
C         67.04676        58.37712         0.22342
C         65.82694        59.17153        -0.07483
C         67.13034        61.28063         0.08770
C         65.90983        60.66779        -0.12439
C         67.43598        62.74548        -0.21243
C         65.40561        63.49336         0.75577
C         66.84076        65.56599         1.16019
C         65.63582        64.93626         0.52822
C         66.48021        66.80453         1.97759
C         65.57818        67.83979         1.23916
C         66.24988        69.41096         3.02256
C         65.27822        68.93713         2.23452
C         69.75159        31.52887         1.54192
C         70.03767        32.99180         1.74459
C         68.77016        33.83282         2.02327
C         69.89463        35.85313         0.86004
C         68.74604        35.29889         1.59815
C         69.85704        37.21121         0.47682
C         68.63287        37.98092         0.60357
C         69.83940        39.98408        -0.21705
C         68.62544        39.34983         0.17248
C         69.84938        41.38322        -0.52781
C         68.62349        42.10927        -0.62087
C         69.85715        44.15608        -1.18686
C         68.61778        43.48726        -1.03806
C         69.92275        45.57371        -1.60334
C         68.60546        46.31521        -1.78755
C         69.85218        48.51618        -1.47177
C         68.57351        47.77951        -1.56954
C         69.77432        49.88827        -0.88675
C         68.49210        50.61562        -1.04081
C         69.63258        52.67368        -0.27625
C         68.46326        52.00726        -0.64511
C         69.55492        53.99971         0.34045
C         68.22400        54.76620         0.20936
C         69.45351        56.90035         0.63624
C         68.26325        56.23295         0.24365
C         69.47582        58.33518         0.66890
C         68.31724        59.07654         0.45715
C         69.43633        61.17924         1.02411
C         68.32628        60.52155         0.45784
C         69.43340        62.62794         1.34686
C         68.34027        63.50510         0.79568
C         68.85840        65.21321         2.56092
C         67.98475        64.72254         1.59873
C         68.70076        66.58529         3.08613
C         67.67239        67.40825         2.66616
C         68.53716        69.31844         4.07979
C         67.67804        68.90823         2.90427
C         68.43402        70.61903         4.59115
C         71.43319        31.35932        -0.19953
C         70.45417        30.77176         0.65591
C         71.63805        32.73268        -0.19287
C         70.89630        33.58785         0.64248
C         72.10906        35.62783        -0.13449
C         70.98632        35.01631         0.49283
C         72.15299        36.99029        -0.34019
C         71.03206        37.81553        -0.06167
C         72.26041        39.92049        -0.58132
C         71.05646        39.23762        -0.29322
C         72.28218        41.29425        -0.75330
C         71.08842        42.04865        -0.73364
C         72.27472        44.23003        -0.79417
C         71.08905        43.48547        -0.91877
C         72.28399        45.63319        -0.91351
C         71.16584        46.32737        -1.33683
C         72.38945        48.58953        -1.10876
C         71.17993        47.80082        -1.47435
C         72.33209        49.90251        -0.82776
C         71.04647        50.60971        -0.57810
C         72.10186        52.77683         0.20207
C         71.01039        52.13122        -0.61431
C         72.00448        54.04122         0.67339
C         70.76862        54.79194         0.60905
C         71.83883        56.90368         1.34702
C         70.67634        56.15914         0.87672
C         71.88435        58.24742         1.37763
C         70.78743        59.08749         0.79253
C         71.37898        60.93243         2.47659
C         70.55692        60.41442         1.48750
C         71.14522        62.20712         3.05234
C         70.20067        63.07667         2.52736
C         70.92886        65.00746         3.87204
C         70.01032        64.43287         2.99582
C         70.76913        66.31066         4.37665
C         69.68814        67.10411         4.02134
C         70.28556        68.86340         5.70387
C         69.50304        68.43263         4.60918
C         70.14441        70.14437         6.22774
C         69.22863        71.03464         5.65967
O         65.95236        58.63973         1.27977
O         53.09281        46.18073        -2.02874
O         59.99258        60.78729        -0.13518
O         69.34310        45.84011        -2.94604
O         53.79187        43.71332        -1.33825
O         67.20645        63.17709        -1.32307
O         63.99348        48.17107        -3.21840
O         50.51668        58.03189        -1.02293
O         57.41360        58.76265        -4.23825
O         66.73212        65.47655        -0.29083
O         68.60280        54.10123         1.45712
O         61.60521        45.76551        -2.84321
O         60.86473        59.07539        -3.15367
O         63.07796        38.08184         2.95754
O         48.74914        54.06375        -2.13182
O         63.16838        41.15128        -1.61333
O         52.33075        53.25586         0.59760
O         54.26410        56.29535        -4.24217
O         70.60961        48.36366        -2.71823
O         48.88491        51.13535         2.46815
O         70.28845        49.98561         0.50411
O         64.61250        66.79888        -0.76191
O         69.06555        34.89361         2.99078
O         50.63878        55.03378        -3.37431
O         52.96708        58.49673        -4.58951
O         56.96669        48.45041         0.51319
O         69.67566        63.54715         0.19945
O         60.14862        41.48863         1.62099
O         61.22429        64.52894        -2.30522
O         54.04416        50.14673        -2.45450
O         68.27636        69.52716         1.73078
H         67.72343        69.26727         0.95027
O         66.00962        62.93720         1.84093
H         65.54245        62.06823         2.02114
O         55.32623        53.53066        -0.10926
H         56.18809        53.99663        -0.18169
O         54.41339        41.09608        -1.25413
H         54.12932        41.94325        -1.68228
O         66.33548        68.40692         0.15468
H         66.22447        67.79620        -0.61678
O         57.61233        45.62404         1.08216
H         57.55777        46.54952         1.41498
O         44.27421        56.49793         2.04632
H         45.05605        57.08138         1.87050
O         65.26536        58.82776        -2.31981
H         64.59067        58.51897        -2.96190
O         51.86720        46.91385        -2.23229
H         52.14803        47.65442        -2.82446
O         60.67638        41.47768        -2.00863
H         61.50245        41.40388        -2.54363
O         66.49031        47.62552        -3.62947
H         65.74476        47.11929        -4.02884
O         64.91015        36.27412         3.66013
H         64.16842        36.90711         3.82740
O         46.51092        57.63983         0.97474
H         47.39199        57.52353         1.38950
O         71.21864        59.40836        -0.57252
H         70.58256        60.05863        -0.94056
O         42.16915        52.08763         4.30217
H         42.44947        51.33266         4.86380
O         70.85805        33.07101         2.95391
H         70.63755        33.93737         3.37534
O         47.46205        45.86646         0.09976
H         48.22863        45.41659        -0.31551
O         40.49153        50.25139         4.42129
H         39.59551        49.87601         4.54974
O         42.90877        49.09659         4.38100
H         41.97535        49.35057         4.59881
O         61.40971        54.91739        -3.83105
H         60.69728        55.46849        -4.22118
O         65.61663        66.26645         3.03886
H         66.18547        65.82113         3.70254
O         71.28063        52.47179        -2.01312
H         71.38418        53.44442        -2.07705
O         57.21661        44.40804        -2.33830
H         57.21593        43.51678        -2.74613
O         50.85553        49.13668         2.58136
H         50.28581        49.84910         2.96541
O         57.06180        57.26772        -0.87420
H         56.97494        56.38535        -0.45518
O         63.68958        40.57892         2.40559
H         63.15884        40.08229         3.07166
O         64.81522        45.22928        -3.35695
H         63.87271        45.07810        -3.59265
O         64.31076        60.94454         1.54594
H         64.55617        59.99748         1.67841
O         62.62505        48.41357         0.15646
H         61.90335        48.91972         0.58764
O         50.94430        45.23990         3.49849
H         50.46089        46.04481         3.78220
H         38.15345        49.63434         3.19595
H         35.95637        50.72615         2.82014
H         37.94747        54.38795         1.74264
H         35.86856        53.12994         2.11644
H         39.88169        49.06035         1.62886
H         39.53490        55.26696         1.26972
H         42.00268        47.80389         1.61376
H         41.60715        56.46192         0.73999
H         45.42136        45.27225         2.60800
H         43.44998        46.64628         3.18807
H         45.04454        57.67825        -1.76570
H         43.04258        56.62150        -0.79972
H         47.05568        44.18191         2.34006
H         46.72629        59.24517        -1.37226
H         49.18481        43.15902         2.75101
H         48.58948        60.23759        -2.60410
H         52.93879        40.90312         2.10020
H         51.07169        42.33192         2.81779
H         52.41674        62.18334        -3.58514
H         50.41136        61.05664        -3.27592
H         54.07323        39.56091         1.05416
H         53.99943        63.26303        -3.05490
H         56.21903        38.60406         1.58913
H         55.95650        64.48285        -2.29379
H         59.97519        36.52600         2.03758
H         57.83835        37.62019         1.57939
H         59.33267        66.61449        -0.57163
H         57.44249        65.40202        -1.46087
H         61.73317        35.47020         1.22893
H         60.88396        67.42899         0.37088
H         63.85278        34.31767         1.55942
H         62.76196        68.62582         1.31453
H         67.37611        32.12101         2.31705
H         65.38508        33.49031         2.57554
H         66.02128        70.21216         3.74161
H         64.26124        69.34780         2.31252
H         69.05247        31.03825         2.23386
H         67.72757        71.32945         4.13982
H         71.99924        30.72274        -0.89274
H         70.27182        29.68934         0.59088
H         72.34149        33.16410        -0.92006
H         72.98236        35.01750        -0.40097
H         73.06129        37.42931        -0.77404
H         73.20784        39.36799        -0.63326
H         73.24359        41.78926        -0.94475
H         73.21461        43.72571        -0.53528
H         73.22182        46.16727        -0.70925
H         73.37233        48.10845        -1.22241
H         73.26710        50.46755        -0.69839
H         73.05958        52.24488         0.29624
H         72.88448        54.49997         1.14682
H         72.70273        56.33558         1.72062
H         72.79866        58.74904         1.72600
H         72.20838        60.33185         2.87445
H         71.76365        62.50477         3.91006
H         71.81551        64.44013         4.18478
H         71.53395        66.68951         5.06691
H         71.01973        68.18619         6.16077
H         70.76424        70.45840         7.07891
H         69.13280        72.05609         6.05277
