         404
 CSIRO Nanostructure Databank - Neutral Graphene Oxide Data Set
C          1.76142         3.50388         0.51409
C          0.60826         4.09085         0.01049
C          1.53390         6.33135         0.36797
C          0.50119         5.48233        -0.08535
C          1.46162         7.78617         0.16447
C          0.32262         8.41695        -0.40748
C          1.33033        10.63827        -0.21201
C          0.25907         9.78752        -0.58737
C          1.26468        12.08580        -0.34504
C          0.18573        12.75755        -0.97883
C          1.24855        14.93606        -0.56059
C          0.15607        14.13384        -1.00789
C          1.20361        16.36529        -0.76033
C         -0.01680        17.03347        -1.02779
C          1.17110        19.12317        -1.43120
C         -0.03198        18.37684        -1.33016
C          1.14531        20.49605        -1.91304
C         -0.04243        21.10917        -2.34387
C          1.15356        23.08584        -3.05965
C         -0.04273        22.39210        -2.90363
C          1.11142        25.49294        -2.96922
C         -0.06945        26.28735        -2.92847
C          0.99557        27.82147        -1.24751
C         -0.13326        27.41771        -2.16197
C          1.04626        29.32624        -1.02045
C         -0.16115        30.02167        -0.68564
C          1.05317        32.09794        -0.23546
C         -0.14019        31.32989        -0.24131
C          1.12273        33.45568         0.18269
C         -0.06555        34.19666         0.48237
C          1.23177        36.12082         1.22330
C         -0.01717        35.48345         0.95671
C          1.28987        37.44074         1.74702
C          4.04448         3.73746         1.42525
C          2.82435         4.31970         0.97780
C          3.77952         6.53744         1.50933
C          2.67859         5.73418         0.95367
C          3.72162         8.03333         1.22497
C          2.55970         8.59788         0.49330
C          3.53102        10.83852         0.87809
C          2.50302        10.01148         0.31144
C          3.23399        12.18214         1.01686
C          2.28788        12.89181         0.22992
C          3.62565        15.12486         0.11418
C          2.40174        14.32342         0.00174
C          3.62576        16.44954        -0.37716
C          2.41009        17.11655        -0.73145
C          3.63675        19.26619        -1.17549
C          2.40142        18.50267        -1.11251
C          3.61283        20.63591        -1.60942
C          2.37197        21.21681        -2.02240
C          3.63343        23.17347        -2.76265
C          2.38199        22.50903        -2.62941
C          3.58300        25.38666        -2.66448
C          2.32708        25.99691        -2.42181
C          3.53808        27.84505        -1.40335
C          2.31835        27.23482        -1.70454
C          3.52508        29.24753        -0.93267
C          2.24843        30.00148        -1.00569
C          3.58600        32.21283        -0.72465
C          2.26005        31.46331        -0.79063
C          3.62424        33.45441         0.06745
C          2.39815        34.10170         0.37929
C          3.68918        36.01952         1.27504
C          2.43760        35.41147         0.95989
C          3.72142        37.33934         1.81220
C          2.50121        38.03908         2.02471
C          6.40182         3.69320         1.98603
C          5.17782         4.47287         1.83033
C          6.19726         6.78041         2.06425
C          5.07475         5.90993         1.86679
C          6.25160         8.13558         1.59317
C          5.00694         8.79235         1.14794
C          6.14088        11.08525         1.50124
C          4.90445        10.29514         1.09280
C          6.19750        12.56730         1.26603
C          5.03946        13.35698         1.23411
C          6.16176        15.23781         0.33597
C          4.92287        14.57800         0.54007
C          6.20905        16.56302        -0.30421
C          4.88760        17.19147        -0.64259
C          6.09349        19.38540        -0.94372
C          4.86385        18.65352        -0.87801
C          6.06244        20.76000        -1.34486
C          4.82473        21.38425        -1.68004
C          6.02420        23.58063        -2.10740
C          4.82004        22.74582        -2.16620
C          6.01374        25.03444        -2.14099
C          4.79221        25.83816        -2.11747
C          6.03793        27.87212        -1.47771
C          4.78507        27.17846        -1.61906
C          6.07668        29.25065        -1.15949
C          4.82459        29.97407        -0.82388
C          6.10658        32.02894        -0.35147
C          4.88799        31.48135        -1.05059
C          6.10417        33.28478         0.29018
C          4.86789        34.00720         0.48040
C          6.15106        35.88982         1.47431
C          4.90727        35.29898         1.08667
C          6.16108        37.22193         1.99132
C          4.97648        37.92276         2.14037
C          8.86962         3.60139         2.68612
C          7.52347         4.08584         2.68786
C          8.65039         6.71650         2.13267
C          7.41145         6.26665         2.59814
C          8.66188         7.96626         1.45868
C          7.47883         8.79316         1.38753
C          8.66378        11.17472         1.13818
C          7.46288        10.32119         1.39835
C          8.67374        12.58926         1.25718
C          7.40925        13.28007         1.14150
C          8.57916        15.46895         0.88452
C          7.35927        14.64804         0.77278
C          8.57782        16.84716         0.35655
C          7.42075        17.40789        -0.13680
C          8.53351        19.56028        -0.63922
C          7.35166        18.78879        -0.58268
C          8.49431        20.88443        -1.12955
C          7.27580        21.50692        -1.48103
C          8.48779        23.63585        -1.94750
C          7.24695        22.91260        -1.84483
C          8.47915        25.04892        -2.08491
C          7.23047        25.75145        -2.01820
C          8.46712        27.90851        -1.78606
C          7.24754        27.18094        -1.78250
C          8.49885        29.28031        -1.45046
C          7.29546        29.95572        -1.10698
C          8.51187        31.87350        -0.08399
C          7.30417        31.31158        -0.54511
C          8.54607        33.10632         0.60287
C          7.33420        33.83715         0.77557
C          8.62591        35.73790         1.69124
C          7.36941        35.15006         1.33972
C          8.69965        37.10870         2.11131
C          7.44617        37.89038         2.42282
C         11.28032         3.94848         2.83470
C          9.98535         4.47799         2.69109
C         11.20294         6.61632         1.87094
C          9.88711         5.87868         2.14952
C         11.15287         8.02753         1.48037
C          9.93317         8.42980         0.99012
C         11.13627        11.21024         1.03506
C          9.89546        10.61565         0.79010
C         11.13031        12.61340         1.12200
C          9.90089        13.29878         1.15224
C         11.17745        15.52193         0.96178
C          9.88655        14.78048         1.17448
C         11.15445        16.88938         0.41896
C          9.85084        17.60527         0.41865
C         11.10335        19.52685        -0.66480
C          9.82328        19.00702        -0.13898
C         11.07915        20.93983        -1.06859
C          9.75447        21.64635        -1.21032
C         10.95798        23.62890        -2.10560
C          9.73932        22.97106        -1.84588
C         10.92265        25.03507        -2.33681
C          9.71567        25.74067        -2.22390
C         11.05703        27.93144        -1.99311
C          9.70389        27.22026        -2.22950
C         11.04207        29.21822        -1.34509
C          9.79581        29.98155        -1.29853
C         10.96154        31.57823         0.37537
C          9.78872        31.27507        -0.49918
C         10.99476        32.89503         1.05442
C          9.80333        33.65115         1.07935
C         11.09221        35.56026         1.93608
C          9.83088        34.98479         1.58538
C         11.15571        36.99083         2.13923
C          9.92660        37.72128         2.24687
C         13.74626         4.01910         2.76617
C         12.50721         4.66759         2.63978
C         13.68321         6.78858         2.06034
C         12.50294         6.04638         2.24565
C         13.66759         8.20445         1.68415
C         12.35688         8.89998         1.58924
C         13.67055        11.09718         1.20761
C         12.36180        10.41505         1.36327
C         13.66251        12.62086         1.27942
C         12.41040        13.25996         0.65891
C         13.65113        15.41350         0.29651
C         12.46319        14.76076         0.87466
C         13.58984        16.73659        -0.07918
C         12.32772        17.47521        -0.04687
C         13.49814        19.39111        -1.22335
C         12.29098        18.82923        -0.60011
C         13.45504        20.76272        -1.76141
C         12.26558        21.52615        -1.69988
C         13.44548        23.51047        -2.43700
C         12.22484        22.88501        -2.09706
C         13.46998        24.97934        -2.61564
C         12.19589        25.76886        -2.53773
C         13.49076        27.67172        -1.52985
C         12.29288        27.14342        -2.01302
C         13.52430        28.95516        -0.88607
C         12.34787        29.89899        -1.04618
C         13.46145        31.36502         0.72011
C         12.22350        30.82742         0.13901
C         13.36835        32.49458         1.58321
C         12.21062        33.36572         1.63598
C         13.48687        35.46242         2.38142
C         12.26000        34.76006         2.05476
C         13.59610        36.89801         2.27458
C         12.38945        37.64512         2.20022
C         16.19293         4.01895         2.50447
C         14.95600         4.71132         2.51951
C         16.17036         6.81645         2.07560
C         14.94055         6.11662         2.22828
C         16.12891         8.29216         1.91274
C         14.83760         8.93973         1.57935
C         16.11989        11.06339         1.03276
C         14.85254        10.37996         1.30478
C         16.12512        12.51990         0.77080
C         14.88033        13.29195         0.68310
C         16.03590        15.20032        -0.41325
C         14.86738        14.60243         0.23110
C         15.97437        16.52150        -0.92191
C         14.87276        17.45200        -0.44841
C         15.75080        19.14906        -2.25448
C         14.65963        18.66864        -1.31448
C         15.98353        20.66752        -2.08854
C         14.65023        21.39686        -2.15783
C         15.94708        23.44790        -2.64498
C         14.65921        22.77814        -2.43775
C         15.95009        24.91895        -2.51635
C         14.71366        25.64515        -2.20077
C         15.96928        27.49761        -1.16050
C         14.73116        26.91375        -1.65534
C         15.92986        28.68448        -0.35809
C         14.67201        29.40412        -0.20886
C         15.82908        31.00409         1.35364
C         14.64185        30.61981         0.56942
C         15.82032        32.31746         2.01683
C         14.55615        32.76388         2.33628
C         15.95896        35.28598         2.73859
C         14.62900        34.80662         2.85124
C         16.05162        36.71746         2.55747
C         14.86876        37.48977         2.40087
C         18.61086         3.94110         2.03396
C         17.38500         4.68603         2.22324
C         18.68148         6.77843         1.84123
C         17.38416         6.11251         2.08166
C         18.70059         8.28110         1.50844
C         17.41335         9.04308         1.60028
C         18.48645        10.90881         0.27009
C         17.32481        10.37597         0.96172
C         18.44629        12.21564        -0.28346
C         17.35653        13.12636         0.08826
C         18.27787        14.89177        -1.39372
C         17.19848        14.41056        -0.60936
C         18.23232        16.23190        -1.88881
C         17.07846        17.06096        -1.65362
C         18.20378        18.97035        -2.78404
C         17.05614        18.39117        -2.15971
C         18.24222        20.35586        -3.19615
C         16.99432        21.24553        -3.12542
C         18.39138        23.51578        -2.80335
C         17.13204        22.76682        -2.85966
C         18.46447        24.79397        -2.17546
C         17.24361        25.59832        -2.14294
C         18.42368        27.37543        -0.89471
C         17.19357        26.84345        -1.37160
C         18.38929        28.59550        -0.15655
C         17.13655        29.17682         0.17877
C         18.38123        30.95099         1.54127
C         17.12812        30.25004         1.19338
C         18.35053        32.15767         2.42993
C         17.04247        32.92827         2.63079
C         18.38333        35.07220         2.83586
C         17.11145        34.43610         2.79564
C         18.46542        36.51781         2.84901
C         17.32587        37.30883         2.64741
C         19.74599         4.53739         1.56495
C         20.89985         6.58418         0.78282
C         19.80628         5.95784         1.36346
C         20.86421         7.94413         0.39335
C         19.76280         8.76574         0.61505
C         20.62772        10.57434        -0.85584
C         19.62603        10.08134         0.01190
C         20.54999        11.83160        -1.42788
C         19.46893        12.69638        -1.13709
C         20.47432        14.59008        -2.40682
C         19.41369        14.05576        -1.64854
C         20.44408        15.89533        -2.86297
C         19.34321        16.75056        -2.60134
C         20.47645        18.64033        -3.70191
C         19.34783        18.13133        -3.01988
C         20.49676        19.94704        -4.12945
C         19.39112        20.78254        -3.86385
C         20.82623        23.68763        -3.11944
C         19.59965        23.05990        -3.37009
C         20.88372        24.81638        -2.30114
C         19.69154        25.43033        -1.86506
C         20.84290        27.37061        -0.75024
C         19.67140        26.72766        -1.17271
C         20.81310        28.60400        -0.08476
C         19.60462        29.24025         0.23343
C         20.75106        31.33740         1.04037
C         19.55615        30.50895         0.95906
C         20.79036        32.45640         1.78309
C         19.69798        32.82319         2.76154
C         20.80209        35.00634         3.16719
C         19.61658        34.33924         2.90938
C         20.86264        36.41895         3.25422
C         19.72699        37.16056         3.04950
O         17.15923        13.22584         1.54175
O         17.58810        32.05566         3.68256
O          6.82469        10.67565         2.70858
O          7.35007         5.23212         3.51049
O          9.89106         9.44074         0.05098
O         19.55778        22.07628        -4.35783
O          3.94443        12.90550         1.96376
O         10.50588         5.82415         0.81503
O          5.71516        16.52135        -1.69039
O         11.30258        30.39684         1.20015
O         10.36370        27.88424        -3.32921
O         12.85014        25.51374        -3.83938
O         16.70898        25.67010        -3.52619
O          5.19967         9.48942        -0.12346
O          3.63902        24.32098        -3.56556
O          9.11983        15.37870         2.26546
O          1.07363        24.32849        -3.73139
O         16.24263        29.93146         2.31613
O          4.17779        29.49470         0.39531
O          3.37396         7.53734         2.54305
O         12.20319         9.84547         2.72989
O          9.95115        31.32740        -1.94594
O         19.12782         7.78852         2.80622
O         16.85846         9.03526         2.95090
O          9.82144        18.77006         1.31218
O         12.43369        13.06961        -0.73216
O         12.05959        15.32729         2.14202
O          2.76574        32.29344        -1.94066
O         10.52362        21.74378         0.05054
O         14.43349        33.57430         3.46486
O          0.70883        27.21105         0.05886
H          1.40085        27.51762         0.68322
O          5.15296        31.64040        -2.46975
H          4.30710        31.93458        -2.88591
O         12.67665        30.76582        -2.18688
H         12.47556        30.27323        -3.01098
O         16.55747        20.89999        -0.78637
H         16.03456        20.39751        -0.12362
O         15.40021        18.02278         0.81395
H         15.34289        17.32516         1.50284
O          7.52493        39.21717         1.87842
H          7.54622        39.14487         0.90231
O         16.40795        21.13660        -4.45663
H         15.73165        21.84039        -4.55898
O         15.23288        18.89136        -3.58953
H         15.71704        19.47972        -4.22254
O         20.13594        32.28632         4.03876
H         19.31960        32.13566         4.56973
O         13.63329        12.92404         2.69411
H         14.39378        12.48463         3.12969
H          1.86319         2.41025         0.55127
H         -0.21840         3.46012        -0.34480
H         -0.40676         5.90740        -0.53253
H         -0.55120         7.81576        -0.69157
H         -0.66135        10.22058        -1.00296
H         -0.64056        12.18946        -1.42663
H         -0.70516        14.62481        -1.48027
H         -0.96916        16.48995        -0.97517
H         -0.99911        18.86064        -1.51650
H         -1.00189        20.58237        -2.26758
H         -0.98344        22.84634        -3.24035
H         -0.93860        25.96789        -3.52054
H         -1.06236        28.00432        -2.14292
H         -1.10924        29.46754        -0.67173
H         -1.07869        31.77847         0.11235
H         -1.04535        33.73309         0.30488
H         -0.94848        36.03320         1.15591
H          0.35020        37.98148         1.93114
H          4.12631         2.64081         1.38845
H          2.53562        39.05992         2.43159
H          6.43157         2.73327         1.44933
H          5.00435        38.94845         2.53641
H          9.06130         2.51927         2.62010
H          7.40244        38.02191         3.54130
H         11.36775         2.88778         3.11677
H          9.96755        38.79431         2.48592
H         13.78112         2.94806         3.01372
H         12.42541        38.74363         2.23956
H         16.20091         2.92994         2.65919
H         14.95393        38.58583         2.38487
H         18.58375         2.85377         2.19580
H         17.42839        38.40197         2.58269
H         20.63908         3.93640         1.33916
H         21.77820         5.98269         0.50699
H         21.72042         8.31790        -0.18397
H         21.49939         9.95167        -1.09441
H         21.35759        12.15268        -2.09812
H         21.35818        13.97997        -2.63276
H         21.30918        16.25492        -3.43300
H         21.34826        18.00719        -3.90251
H         21.35862        20.35762        -4.67023
H         21.73923        23.29055        -3.58182
H         21.85832        25.27964        -2.09720
H         21.82150        26.90840        -0.93984
H         21.76799        29.05526         0.21725
H         21.61101        31.07670         0.40712
H         21.69984        33.07413         1.77569
H         21.72783        34.43134         3.30608
H         21.82603        36.90948         3.44994
H         19.76052        38.25934         3.06986
