         296
 CSIRO Nanostructure Databank - Neutral Graphene Oxide Data Set
C         30.16345        32.40315         0.69068
C         30.19615        33.37872        -0.07069
C         30.30098        36.11400        -1.36133
C         29.93335        37.29513        -1.22900
C         30.33435        39.92225         0.37616
C         30.32677        40.94230         1.07988
C         32.56947        29.84141         2.17818
C         31.51139        30.44281         1.97374
C         32.58839        32.14693         0.58784
C         31.30446        31.75678         1.34408
C         32.53909        33.20777        -0.47922
C         31.23646        33.76981        -1.07021
C         32.63719        35.83810        -1.66426
C         31.41517        35.23462        -1.38441
C         32.78305        37.29101        -1.86583
C         30.84120        38.37786        -1.51011
C         32.43194        40.19773        -0.79096
C         31.14860        39.41275        -0.67698
C         32.53297        41.48500         0.03353
C         31.63825        41.60114         1.37651
C         32.76148        43.67063         1.68917
C         31.70800        43.04204         1.77593
C         35.42188        28.12474         2.15610
C         35.13670        29.41339         1.75462
C         33.97560        30.36449         1.93043
C         35.04343        31.79567         0.04310
C         33.77400        31.15850         0.59359
C         34.85903        32.77275        -0.89330
C         33.70892        33.64765        -1.02466
C         35.14927        35.80043        -1.14829
C         33.91771        35.00456        -1.72619
C         35.06801        37.30473        -0.93590
C         33.84786        38.03755        -1.40311
C         35.09419        40.32875        -1.29325
C         33.75854        39.52981        -1.25912
C         35.02567        41.82627        -0.78795
C         33.78635        42.31879        -0.04229
C         35.06711        44.34584         0.86406
C         34.10128        43.24615         1.18886
C         35.35146        45.39545         1.86348
C         37.68234        27.70701         1.57729
C         36.33843        27.25776         1.95881
C         37.72998        29.22932         1.48395
C         36.43979        30.04069         1.31856
C         37.68301        31.71507        -0.26558
C         36.39042        31.25839         0.40527
C         37.78377        33.15217        -0.68589
C         36.78094        33.78984        -1.33772
C         37.68592        35.99103        -1.17540
C         36.55004        35.23939        -1.27646
C         37.65776        37.46495        -1.11533
C         36.34650        38.11728        -0.73374
C         37.66654        40.41044        -0.96774
C         36.34022        39.61581        -0.76939
C         37.58509        41.79346        -0.26097
C         36.31772        42.59650        -0.58117
C         37.60158        44.84353         0.11672
C         36.29482        43.99255         0.04762
C         37.72354        45.76570         1.35520
C         36.43634        45.98705         1.91864
C         40.21500        24.82478         2.12406
C         39.23210        25.61346         2.16057
C         40.31225        27.76323         1.58796
C         39.02634        26.95993         1.65476
C         40.28685        29.04540         0.98873
C         39.02233        29.84342         1.05342
C         40.23694        31.85321         0.15590
C         38.95960        31.06868         0.18764
C         40.26871        33.12855        -0.66746
C         39.00680        33.98340        -0.38240
C         40.35483        35.98720        -1.50008
C         38.97515        35.19967        -1.43987
C         40.27460        37.53859        -1.27242
C         38.94286        38.24778        -1.13699
C         40.18528        40.46069        -0.56045
C         38.90987        39.62631        -0.44501
C         40.17176        41.81866        -0.44983
C         38.88301        42.58060        -0.48668
C         40.18988        44.51963         0.57717
C         38.89746        44.03261        -0.11032
C         40.19088        46.04691         0.89860
C         38.88834        46.39046         1.65298
C         40.12673        48.09402         2.93158
C         39.13252        47.40228         2.62701
C         42.77625        24.70136         1.76152
C         41.57454        24.97182         2.43583
C         42.73775        27.60238         1.12656
C         41.59002        27.20000         1.87171
C         42.67902        28.88451         0.53019
C         41.49920        29.66125         0.60315
C         42.74741        31.75733        -0.27981
C         41.53588        31.11650         0.29555
C         42.80765        33.10815        -0.45716
C         41.54858        33.90538        -0.37458
C         42.80224        36.06638        -0.86051
C         41.49985        35.35947        -0.66740
C         42.77809        37.52649        -0.53502
C         41.52801        38.29098        -0.92168
C         42.80083        40.45833        -0.56047
C         41.48740        39.73315        -0.46963
C         42.76601        41.93180        -0.80461
C         41.43983        42.62237        -0.62205
C         42.76956        44.44855         0.61940
C         41.46479        44.11874        -0.23104
C         42.79624        45.98162         1.01107
C         41.47051        46.38944         1.69754
C         42.79313        48.08383         2.92838
C         41.46003        47.50088         2.75842
C         43.82291        25.38342         1.56271
C         45.26157        27.39357         0.82092
C         43.92407        26.63657         0.71806
C         45.18098        28.71022        -0.00077
C         43.88486        29.44787        -0.14529
C         45.13756        31.68512         0.13882
C         43.98184        30.92277        -0.59001
C         45.34386        33.05153        -0.50698
C         44.06990        33.74187        -1.04586
C         45.41662        36.07271        -0.75073
C         44.08839        35.30585        -0.92481
C         45.37980        37.54018        -0.09469
C         44.06217        38.27561        -0.37289
C         45.37661        40.42336        -1.06344
C         44.02966        39.65133        -1.05016
C         45.39395        41.92666        -0.86270
C         44.08547        42.68253        -0.69331
C         45.38558        44.67559         0.30018
C         44.06986        44.05153        -0.10374
C         45.35320        45.94089         1.17081
C         44.08172        46.24013         1.92273
C         43.83555        47.63004         2.44675
C         47.50338        27.38118        -0.24699
C         46.50496        26.79159         0.17958
C         47.73988        28.78050        -0.64285
C         46.44539        29.50025        -0.30867
C         47.77885        31.57826         0.48981
C         46.46090        30.90751         0.21352
C         47.81057        33.12246         0.60834
C         46.61451        33.77254        -0.19483
C         47.90361        35.92994        -0.55696
C         46.58374        35.29479        -0.05629
C         47.85394        37.47192        -0.50008
C         46.66137        38.19259        -0.56546
C         47.90310        40.35693        -0.45974
C         46.71460        39.60134        -1.10214
C         47.96690        41.87255        -0.72305
C         46.66148        42.59073        -0.42774
C         47.88866        44.44717         0.57231
C         46.64200        43.86731         0.13115
C         47.69723        45.65991         1.29018
C         46.66870        46.14559         1.80866
C         50.34463        28.85251        -0.30365
C         49.06026        29.55624        -0.69648
C         50.38122        31.56132         0.38387
C         49.08687        30.71847         0.44421
C         50.33384        32.97333        -0.17773
C         49.07733        33.78106         0.02111
C         50.32603        35.95504        -0.54812
C         49.13978        35.33255         0.16233
C         50.23576        37.26706        -0.99896
C         49.11345        38.11906        -0.63573
C         50.48294        40.31806        -0.15807
C         49.19326        39.56672        -0.30118
C         50.45753        41.70542        -0.17024
C         49.21778        42.47434        -0.12880
C         50.32293        44.28909         0.96831
C         49.11833        43.77768         0.42250
C         51.41346        29.38218         0.02772
C         52.78839        31.63416        -0.08398
C         51.71943        30.76191         0.39333
C         52.79106        32.87543        -0.12398
C         51.65022        33.72974        -0.50957
C         52.71393        36.09002        -0.23291
C         51.61613        35.21592        -0.64545
C         53.07272        37.07013         0.40768
C         53.40172        38.30594         1.02689
C         53.01863        40.70830         1.37312
C         52.65811        39.46779         0.83461
C         52.91542        41.92750         1.63007
C         52.17034        42.90779         0.96337
C         51.47091        44.04781         1.41355
O         34.27714        34.82352        -3.13917
O         41.99474        42.36591        -1.95996
O         46.86118        29.26317        -1.69275
O         38.16704        38.10323        -2.35006
O         32.59871        42.67493        -0.78827
O         44.01861        43.88229        -1.54282
O         43.42455        35.82678        -2.13641
O         46.43569        33.14045        -1.48057
O         51.74844        34.33634        -1.81069
O         42.24030        40.10964         0.73783
O         45.43180        46.04669        -0.24626
O         36.58362        31.37787         1.86590
O         51.16929        31.32369         1.60359
O         34.85651        36.35037         0.16743
O         51.64053        39.49405        -0.15444
O         35.63194        42.63617        -1.84947
O         44.37935        28.55792        -1.19989
O         41.44747        46.07034         3.12571
O         38.37296        30.75613        -1.12452
O         38.57791        29.90889         2.45454
O         38.26454        27.07024         0.42008
O         41.39196        34.90726         0.71798
O         31.75435        38.01185        -2.52122
O         32.22227        32.71415         1.89629
O         46.97112        31.00671         1.57477
O         49.38020        33.16755        -1.25380
O         48.16024        41.90155        -2.25061
O         36.26894        38.92086         0.49537
O         38.94957        43.62808        -1.50516
O         48.25758        39.92277         0.85894
O         51.70644        42.41342        -0.27358
O         35.79475        32.98602        -1.89524
O         45.41498        41.33532        -2.21338
O         40.93582        31.91450         1.40910
O         41.09317        38.20403        -2.29210
O         38.75937        34.62568        -2.69487
O         43.19311        37.96838         0.77950
O         32.86878        40.26822        -2.16125
O         41.71593        26.32534         2.97330
O         35.16519        44.76496        -0.48888
O         49.22593        30.13739        -1.95533
H         48.49079        29.86706        -2.55006
O         45.81005        36.37290        -2.10698
H         44.98113        36.47171        -2.64184
O         33.45895        30.12627        -0.37729
H         33.28755        30.54050        -1.24910
O         38.89971        34.41213         0.96220
H         39.79970        34.58825         1.33300
O         44.01963        33.46654        -2.44892
H         44.93847        33.35669        -2.77800
O         40.85372        35.82749        -2.82384
H         40.10865        35.43822        -3.35853
O         44.09659        45.38092         3.04029
H         43.26018        45.51549         3.54665
O         40.20496        46.81078        -0.30407
H         39.37324        46.61651        -0.80477
O         48.12318        43.28403        -2.65501
H         47.17647        43.42327        -2.90667
O         37.46753        41.63614         1.17155
H         37.77835        40.72891         1.42641
O         37.57396        45.79365        -0.97381
H         37.42830        45.29185        -1.80641
O         40.20236        43.82237         1.84945
H         39.74995        44.37139         2.52785
O         34.70519        42.43788         2.19063
H         34.03381        41.79605         2.52804
O         48.17181        35.55763        -1.91446
H         47.39680        35.79764        -2.47602
O         41.47212        44.88970        -1.42564
H         42.01923        44.39724        -2.08574
O         38.77495        39.34214         0.97793
H         39.66385        39.33069         1.39329
O         43.71317        26.24949        -0.62518
H         42.91593        25.68522        -0.68321
O         47.78381        33.41018         2.00749
H         47.19310        32.75606         2.44503
O         54.45020        38.35991         1.89102
H         54.88034        37.48468         1.95719
O         46.48735        35.39301         1.37141
H         46.57547        36.33601         1.65641
O         34.27409        31.27389         2.96412
H         34.62604        30.79865         3.74358
O         51.18314        37.79049        -1.80824
H         51.82437        37.09890        -2.07075
O         33.18637        34.06367        -3.75849
H         33.61224        33.77454        -4.60256
O         40.30094        32.69944        -2.02624
H         39.75192        33.32612        -2.58793
O         49.21153        35.66283         1.55293
H         48.50161        35.16141         2.02483
O         37.93928        40.66994        -2.33902
H         37.08676        40.77167        -2.82971
O         42.79454        43.60816         1.77490
H         41.91944        43.65901         2.23434
O         44.24721        30.94641        -1.98999
H         44.44233        30.02141        -2.27872
O         47.05030        39.43898        -2.49651
H         46.99741        40.32964        -2.92006
O         32.33078        40.84906         2.35823
H         31.77309        40.77581         3.16157
O         30.99847        33.05829        -2.28899
H         31.63556        33.38860        -2.96804
O         45.51717        27.70869         2.17179
H         45.41857        26.89624         2.71280
O         42.96363        46.76809        -0.15334
H         42.19549        46.61701        -0.75745
O         44.65537        31.92028         1.47562
H         45.37037        31.68259         2.11190
O         45.51618        37.62874         1.34396
H         44.61705        37.52954         1.74173
O         49.09399        29.96703         1.65342
H         49.87976        30.23637         2.18721
O         43.77026        39.32175        -2.42937
H         44.00558        40.10153        -2.98193
O         35.34760        40.38845        -2.71718
H         34.57240        40.82577        -3.13815
