         349
 CSIRO Nanostructure Databank - Neutral Graphene Oxide Data Set
C          1.46811         1.84950        -0.32252
C          1.42312         3.27931        -0.44630
C          2.65685         1.18642        -0.19731
C          2.56501         4.02667        -0.56529
C          1.37014         6.17839        -0.90850
C          1.33017         7.56332        -0.89985
C          2.55583         5.48310        -0.60070
C          2.45777         8.31696        -0.50967
C          1.20605        10.46555        -0.76791
C          1.17690        11.83448        -0.96017
C          2.41775         9.78153        -0.51680
C          2.36828        12.59788        -0.94285
C          1.19232        14.76150        -1.43369
C          1.20053        16.17079        -1.48603
C          2.35693        14.00950        -1.27391
C          2.37656        16.91282        -1.37950
C          2.38083        18.32678        -1.13498
C          3.90742         1.89759        -0.24255
C          3.89409         3.33695        -0.72950
C          5.09038         1.26078         0.04425
C          5.05401         4.14831        -0.20171
C          3.72696         6.22559        -0.27593
C          3.65390         7.63156        -0.19350
C          4.99555         5.51967        -0.03886
C          4.77595         8.42093         0.42894
C          3.60609        10.54015        -0.36088
C          3.58847        11.94646        -0.60337
C          4.84720         9.86966        -0.00598
C          4.82214        12.70749        -0.52364
C          3.65140        14.66654        -1.45027
C          3.66534        16.23253        -1.50127
C          4.86693        14.00814        -0.95844
C          4.89115        16.94608        -1.10189
C          3.54802        19.01786        -0.94953
C          4.82455        18.34739        -0.90596
C          6.34757         1.96263         0.10529
C          6.33457         3.41680        -0.15024
C          7.52573         1.33534         0.45204
C          7.57935         4.20457         0.22700
C          6.18246         6.28632         0.32617
C          6.11460         7.72190         0.41804
C          7.42300         5.64115         0.52577
C          7.26085         8.47759         0.62829
C          6.01893        10.57449         0.15841
C          6.00244        12.08388         0.18247
C          7.26026         9.91061         0.51496
C          7.34711        12.69748        -0.10635
C          6.14145        14.77904        -1.03778
C          6.11685        16.26165        -0.97049
C          7.40558        14.09657        -0.58678
C          7.31336        16.98425        -0.72752
C          6.02624        19.05777        -0.68939
C          7.25288        18.40082        -0.63862
C          8.71200         2.07277         0.82573
C          8.69690         3.47046         0.80981
C          9.88535         1.38539         1.26918
C          9.67543         4.24686         1.64354
C          8.59115         6.35095         0.90578
C          8.50097         7.82521         1.17286
C          9.79432         5.69065         1.20113
C          9.76238         8.56209         0.85583
C          8.45600        10.63964         0.65928
C          8.47564        12.05582         0.35917
C          9.74006         9.94307         0.78612
C          9.62298        12.89409         0.91339
C          8.57986        14.92872        -0.26639
C          8.57139        16.29133        -0.46527
C          9.80967        14.18075         0.09040
C          9.80476        17.07552        -0.29095
C          8.48897        19.23820        -0.43550
C          9.77850        18.47214        -0.33816
C         11.06236         2.06763         1.62544
C         11.01359         3.54268         1.83813
C         12.29695         1.40175         1.63157
C         12.29942         4.32408         1.82965
C         11.03623         6.38688         1.17583
C         11.01362         7.78498         0.57923
C         12.26802         5.74460         1.36511
C         12.26833         8.57176         0.82840
C         10.98632        10.67764         0.83823
C         10.94622        12.12626         1.08400
C         12.23613         9.99456         0.86174
C         12.27354        12.88212         1.06282
C         11.08286        14.96897         0.23931
C         11.02315        16.40125         0.00641
C         12.30031        14.33779         0.79140
C         12.21384        17.20252         0.33651
C         11.02178        19.33237        -0.21059
C         12.32025        18.52940        -0.38747
C         13.54954         2.08405         1.54398
C         13.63400         3.56708         1.88506
C         14.68398         1.38710         1.19625
C         14.75939         4.27207         1.17162
C         13.49776         6.41103         1.01150
C         13.48593         7.85250         0.79429
C         14.70742         5.67533         0.93253
C         14.69658         8.58042         0.62782
C         13.49070        10.72694         0.85756
C         13.52708        12.13789         0.85456
C         14.72132        10.00330         0.70560
C         14.74730        12.86748         0.75914
C         13.49374        15.01909         0.83373
C         13.45961        16.50187         0.78742
C         14.76661        14.30563         0.82627
C         14.74821        17.26148         0.77459
C         13.58188        19.29296        -0.08247
C         14.75307        18.66951         0.30097
C         15.89402         2.08258         0.64018
C         15.93884         3.55408         0.97865
C         17.21683         1.34890         0.67688
C         17.18977         4.24634         0.87900
C         15.92577         6.30319         0.39318
C         15.91172         7.85803         0.26767
C         17.20892         5.59057         0.55047
C         17.16474         8.60736         0.25180
C         15.95046        10.72028         0.56989
C         15.98411        12.15817         0.63946
C         17.16280         9.98311         0.36074
C         17.20234        12.88862         0.59825
C         15.98544        15.00172         0.70645
C         16.03640        16.47742         0.76582
C         17.23196        14.30642         0.57184
C         17.26016        17.17367         0.34421
C         16.01810        19.32982         0.28662
C         17.24040        18.61948         0.28885
C         18.42773         2.00527         0.70331
C         18.37650         3.39558         1.30926
C         19.64817         1.37378         0.24499
C         19.78066         4.28894        -0.39493
C         18.47475         6.35982         0.38846
C         18.43439         7.85259         0.24341
C         19.75367         5.67234         0.03146
C         19.68616         8.54194        -0.20267
C         18.41583        10.74341         0.11054
C         18.48271        12.15454         0.58520
C         19.69790        10.03622        -0.16824
C         19.79139        12.86875         0.48603
C         18.45945        15.03387         0.35723
C         18.43616        16.43163         0.14882
C         19.83775        14.39282         0.50315
C         19.66672        17.16588        -0.27382
C         18.47223        19.31034         0.20066
C         19.70152        18.62996        -0.01018
C         20.82534         2.03670        -0.16529
C         20.88020         3.49256        -0.14809
C         22.03413         1.36721        -0.49357
C         22.18660         4.12853         0.14412
C         20.93950         6.34303         0.24946
C         20.95638         7.80098         0.01909
C         22.22668         5.63113         0.29902
C         22.19246         8.55978         0.33174
C         20.99437        10.74343        -0.02949
C         20.99967        12.12712         0.03132
C         22.22906         9.99794         0.06832
C         22.22774        12.85258        -0.17901
C         20.86355        14.89107        -0.55148
C         20.94154        16.42988        -0.58854
C         22.20940        14.21427        -0.33402
C         22.24939        17.15272        -0.56179
C         20.88652        19.30624        -0.16408
C         22.21576        18.69019        -0.50435
C         23.23941         2.06693        -0.79032
C         23.35224         3.50302        -0.51360
C         24.37966         1.38988        -1.24275
C         24.45327         4.25036        -0.88416
C         23.46478         6.34592        -0.06331
C         23.51378         7.77354         0.24638
C         24.54998         5.69327        -0.63484
C         24.72697         8.52897        -0.03006
C         23.45775        10.64467         0.06556
C         23.49373        12.05835        -0.45178
C         24.70267         9.93758         0.06897
C         24.70361        12.84452         0.07652
C         23.45935        14.94843        -0.65175
C         23.44787        16.43492        -0.63848
C         24.77012        14.20928        -0.59294
C         24.75266        17.02881        -0.70298
C         23.22248        19.18426         0.51485
C         24.54916        19.04549         0.24275
C         25.56716         2.08915        -1.62679
C         25.45484         3.59765        -1.81656
C         26.70123         1.41209        -2.00098
C         26.81245         4.33064        -1.84027
C         25.75457         6.47491        -0.92599
C         25.85380         7.81656        -0.54583
C         26.93179         5.80000        -1.53415
C         27.13745         8.57715        -0.59008
C         25.94459        10.68161         0.06720
C         25.99929        12.05839         0.05474
C         27.17975         9.86283         0.19771
C         27.22708        12.78330         0.29564
C         26.13806        14.90261        -0.59878
C         25.97915        16.38392        -0.28539
C         27.21929        14.16760         0.18053
C         26.99766        17.12873         0.27810
C         25.77173        19.34385         0.88822
C         26.94800        18.58134         0.57446
C         27.95947         2.15873        -2.37573
C         27.99287         3.43147        -1.51078
C         29.22252         1.34270        -2.19885
C         29.33900         4.09549        -1.40306
C         28.36040         6.43538        -1.44192
C         28.41386         7.85427        -0.85917
C         29.37269         5.46984        -0.86178
C         29.67857         8.37234        -0.24837
C         28.47449        10.49693         0.60122
C         28.39969        12.05178         0.99358
C         29.72739         9.67260         0.34390
C         29.68131        12.88224         0.87837
C         28.37328        14.95570         0.53804
C         28.22608        16.43968         0.84303
C         29.58409        14.33134         0.77269
C         29.49425        17.20548         0.52423
C         28.16232        19.25892         0.54618
C         29.42089        18.60449         0.32227
C         30.38137         1.91042        -1.80825
C         30.47372         3.32236        -1.43286
C         31.76094         3.92084        -1.13643
C         30.69835         6.04736        -0.45924
C         30.81577         7.52101        -0.21979
C         31.88030         5.20341        -0.70836
C         32.03106         7.98468         0.30772
C         30.94004        10.02145         0.96880
C         30.89981        12.37973         1.27399
C         32.09722         9.23625         0.89814
C         32.12842        13.14756         1.25763
C         30.76394        15.18589         1.21746
C         30.74036        16.57654         0.61738
C         32.09072        14.48719         1.13095
C         31.90075        17.30788         0.30695
C         30.59908        19.33146         0.04741
C         31.82081        18.66788        -0.01124
O         10.73063        14.12478        -1.01737
O         20.07064        16.92711        -1.68698
O         27.65180         9.72654         1.57912
O         29.71950         5.51734         0.54679
O          7.29245         3.84980        -1.17990
O         26.81693         5.28675        -2.92074
O          7.05991        14.21878        -2.03439
O         19.08832         3.73593         2.23252
O         12.53896        17.13286         1.75603
O         27.81241         8.75468        -1.87548
O         19.31449        12.34407         1.79146
O         24.85976        18.34641        -1.00220
O         31.05052        11.11334         1.82031
O         22.86424         8.11992         1.53132
O         20.41318         8.03485        -1.35787
O         11.58872         4.04587         3.09898
O         15.75020         6.96218        -0.90669
O         15.48178        17.05876         2.01729
O         18.88449        10.59582        -1.27350
O         24.11421        14.37815        -1.88635
O          3.81730        15.40744        -2.69309
O         18.67331         7.23609         1.56973
O         11.63099        12.50149         2.32439
O          9.05975        13.20318         2.15138
O         22.38539         4.72034         1.45684
O         14.07662         3.60079         3.27397
H         13.26283         3.56148         3.82936
O         24.85984         3.72918        -3.13901
H         25.32450         4.47900        -3.58400
O          4.41026         8.48890         1.86227
H          4.97007         9.18173         2.27529
O         23.59204        11.85343        -1.88141
H         23.51894        12.73610        -2.31982
O         28.06559        16.53042         2.29453
H         28.91229        16.20198         2.69547
O         28.85953         6.58200        -2.79099
H         28.30677         7.26387        -3.23373
O         30.55664        15.41351         2.66928
H         30.49041        14.52955         3.09270
O         27.88669         2.57601        -3.76194
H         27.69287         1.78898        -4.31101
O         12.40345        18.15259        -1.79793
H         12.58142        18.96060        -2.32363
O         15.62051         2.10588        -0.82976
H         16.45189         2.37412        -1.27890
O         22.56435        19.19310        -1.82411
H         21.89105        18.85191        -2.44991
O         24.45392        13.15622         1.47616
H         24.55603        12.33581         2.00319
O         26.63122        14.85482        -1.96883
H         25.84291        14.90090        -2.55912
O         27.70242         3.03938        -0.13257
H         28.50247         2.61681         0.24558
O          5.78987        12.43644         1.60954
H          6.67219        12.46320         2.04957
O         10.99796         7.57150        -0.89121
H         11.88058         7.22610        -1.14800
O          9.04244         4.30991         2.96687
H          9.76971         4.49995         3.60508
O         20.40469        14.41962        -1.83475
H         20.02480        15.19724        -2.31104
O         11.04214        19.98194         1.05820
H         10.13116        20.32501         1.22444
O          8.35046         7.91925         2.64545
H          7.60307         7.33714         2.90221
O         20.34900        14.80970         1.79114
H         19.94744        14.21085         2.46190
O         28.08316        12.08881         2.40380
H         27.62315        11.24082         2.61834
O          4.11975         3.26315        -2.18176
H          5.05847         3.01215        -2.32267
O          8.32255        20.04323         0.76669
H          8.05435        19.44092         1.49242
O         18.74399         3.82253        -1.17248
H         18.13940         4.55969        -1.39502
H          0.51974         1.29790        -0.25805
H          0.44036         3.76780        -0.38121
H          2.67519         0.10352        -0.00398
H          0.46891         5.62078        -1.19713
H          0.39562         8.06143        -1.18766
H          0.25982         9.91231        -0.82580
H          0.21552        12.31993        -1.17377
H          0.21350        14.26424        -1.38945
H          0.23661        16.70057        -1.48051
H          1.41684        18.85618        -1.11539
H          5.08259         0.18811         0.29389
H          3.52643        20.10563        -0.79157
H          7.53050         0.24499         0.60109
H          5.99435        20.14966        -0.56265
H          9.92029         0.28972         1.17326
H          8.57387        19.98058        -1.27895
H         12.29532         0.31542         1.44671
H         10.98171        20.12003        -1.03178
H         14.61333         0.29866         1.03796
H         13.62178        20.34723        -0.39962
H         17.18420         0.30603         0.31590
H         16.04483        20.41829         0.12893
H         19.61889         0.27631         0.13611
H         18.47952        20.40851         0.26333
H         22.04273         0.26759        -0.54772
H         20.88547        20.40300        -0.07041
H         24.36586         0.29085        -1.31113
H         22.87708        19.53185         1.49617
H         26.71354         0.31012        -1.97196
H         25.91933        20.33253         1.35004
H         29.19905         0.27989        -2.48753
H         28.16343        20.35551         0.64728
H         31.30130         1.30835        -1.75161
H         32.66369         3.31497        -1.30385
H         32.88462         5.63503        -0.59402
H         32.91549         7.33583         0.32585
H         33.01354         9.58168         1.39287
H         33.07904        12.60358         1.35087
H         33.02038        15.07136         1.15186
H         32.88755        16.82629         0.31994
H         30.54415        20.41706        -0.11485
H         32.73800        19.22340        -0.25015
