         268
 CSIRO Nanostructure Databank - Neutral Graphene Oxide Data Set
C         -9.61768         0.86576        -3.19182
C         -8.94418         1.53260        -2.08237
C         -8.14443         0.71581        -1.17526
C         -7.37419         1.39280        -0.11904
C         -6.38504         0.57798         0.68756
C         -5.26351         1.33454         1.38037
C         -4.00419         0.58581         1.75870
C         -2.63799         1.32765         1.96268
C         -1.52642         0.65023         1.15403
C         -0.17170         1.28399         1.32618
C          1.05216         0.54668         0.86723
C          2.28618         1.35026         0.53477
C          3.58014         0.59014         0.38684
C          4.92643         1.33874         0.35993
C          5.94072         0.73035        -0.60856
C          7.17540         1.50162        -0.95845
C          8.49509         0.72452        -0.85728
C          9.70480         1.47892        -1.36650
C         10.91985         0.70764        -1.59975
C         -9.09185         2.86991        -1.86474
C         -8.54955         3.55279        -0.63282
C         -7.29017         2.87320        -0.12719
C         -6.28898         3.55195         0.49815
C         -5.22202         2.83485         1.28085
C         -3.94533         3.56315         1.66832
C         -2.62495         2.85105         1.68084
C         -1.42636         3.53214         1.73197
C         -0.12698         2.76482         1.68596
C          1.18248         3.50221         1.49873
C          2.34277         2.81565         0.79543
C          3.68229         3.48461         0.70685
C          4.80494         2.84411         0.29891
C          6.07879         3.60570         0.07462
C          7.26116         2.97256        -0.59483
C          8.67343         3.53881        -0.37556
C          9.72773         2.82728        -1.21149
C         -8.38022         5.01676        -0.84861
C         -7.41537         5.75537        -0.19207
C         -6.48774         5.02116         0.74147
C         -5.27985         5.80783         1.31033
C         -3.97207         5.06898         1.66781
C         -2.64891         5.82298         1.71972
C         -1.36311         5.04211         1.81318
C         -0.05858         5.80637         1.55918
C          1.20220         5.01624         1.46002
C          2.35580         5.57237         0.68693
C          3.68007         4.95364         1.06956
C          4.90619         5.71161         0.61393
C          6.13633         4.89328         0.88648
C          7.80678         5.87591        -0.91501
C          8.77666         5.03982        -0.59535
C         -7.41392         7.17379        -0.20466
C         -6.10009         7.87318        -0.12315
C         -5.14793         7.26824         0.89937
C         -3.83589         7.96703         0.96479
C         -2.60470         7.12340         0.96130
C         -1.34277         7.71016         0.41517
C         -0.08193         7.30694         1.15333
C          1.26308         7.91496         0.54284
C          2.29300         6.90318         0.05621
C          3.59033         7.50686        -0.43144
C          4.88204         6.94013         0.04592
C          6.19341         7.68779        -0.24871
C          7.00202         6.86587        -1.26428
C         -6.14268         9.37533         0.01157
C         -5.03028        10.07776         0.26261
C         -3.69992         9.45012         0.60356
C         -2.58785         9.73935        -0.35851
C         -1.38971         9.06281        -0.22973
C         -0.19300         9.55221        -0.80493
C          1.07370         8.99466        -0.52576
C          2.21370         9.53010        -1.10780
C          3.53733         8.88174        -1.00955
C          4.79802         9.65868        -1.04867
C          5.98032         9.10010        -0.75131
C         -9.71564        -0.47738        -3.23135
C         -9.12289        -1.30982        -2.16343
C         -8.12993        -0.66209        -1.26209
C         -7.17392        -1.45513        -0.50963
C         -6.26360        -0.85773         0.34739
C         -5.23868        -1.64325         1.09203
C         -4.01040        -0.91789         1.62322
C         -2.63433        -1.62275         1.63514
C         -1.58142        -0.81372         0.85566
C         -0.33424        -1.55828         0.40666
C          0.86648        -0.69083        -0.00980
C          2.16157        -1.51652        -0.23368
C          3.49357        -0.81325        -0.12125
C          4.67632        -1.50264        -0.79452
C          5.98993        -0.75209        -0.65230
C          7.14405        -1.43175        -1.03939
C          8.41039        -0.71529        -1.37081
C          9.73236        -1.46722        -1.42634
C         10.96537        -0.63630        -1.45142
C         -9.19395        -2.79575        -2.26282
C         -8.17164        -3.61194        -1.57246
C         -7.09686        -2.92028        -0.81191
C         -6.15783        -3.78468        -0.03734
C         -5.23820        -3.12974         0.96328
C         -3.91161        -3.83158         0.95634
C         -2.64246        -3.07354         1.14939
C         -1.32119        -3.82512         1.33895
C         -0.20921        -3.03716         0.63183
C          1.17179        -3.67131         0.78642
C          2.23984        -3.00790        -0.06369
C          3.55749        -3.80422        -0.22347
C          4.79871        -2.91536        -0.21588
C          6.11891        -3.62068        -0.40404
C          7.05818        -2.83454        -1.20507
C          8.93022        -3.83782        -1.15167
C          9.83698        -2.85820        -0.92127
C         -8.11363        -4.95551        -1.76732
C         -7.12938        -5.82128        -1.13386
C         -6.42327        -5.29069         0.10297
C         -5.15189        -6.06963         0.49338
C         -3.93561        -5.33694         0.98574
C         -2.61500        -6.02447         0.78046
C         -1.34840        -5.24735         0.76554
C         -0.03713        -6.00313         0.75692
C          1.20793        -5.19861         0.65328
C          2.51859        -5.81307         1.06265
C          3.76134        -5.04529         0.65433
C          5.05092        -5.77316         0.40845
C          6.16308        -5.15128        -0.47439
C          7.52201        -5.81721        -0.18152
C          8.89696        -5.23974        -0.59170
C         -6.93387        -7.07694        -1.61689
C         -5.95574        -8.02704        -1.05149
C         -4.98425        -7.49025        -0.00230
C         -3.67492        -8.16260         0.08074
C         -2.58520        -7.52260         0.84368
C         -1.26120        -8.22910         1.03278
C         -0.02956        -7.36905         1.44300
C          1.30649        -8.12311         1.33477
C          2.57200        -7.28550         1.33004
C          3.89735        -7.98476         1.17539
C          5.03767        -7.29109         0.41704
C          6.40595        -7.87964         0.84812
C          7.56288        -7.08608         0.27877
C         -5.51896        -9.19216        -1.83534
C         -4.40053        -9.88753        -1.50028
C         -3.44819        -9.38101        -0.53174
C         -2.16746       -10.04678        -0.36204
C         -1.11492        -9.53597         0.34318
C          0.17382       -10.34140         0.43766
C          1.39721        -9.58667         0.94323
C          2.69962       -10.15515         0.59164
C          3.94488        -9.48691         0.90431
C          5.23920       -10.04429         0.41682
C          6.38661        -9.34205         0.42689
O          2.56689        -6.30068         2.42754
O          0.64250        -5.84454        -0.52534
O          6.16395         1.24929        -1.97411
O         -0.60683        -2.53480        -0.65842
O         -6.03597         5.88717         2.66147
H         -5.54013         5.23644         3.27254
O          9.79615        -5.33832         0.51326
H          9.34644        -5.02113         1.32329
O         -4.16862         4.33247         2.92071
O         -2.01386         0.17925        -0.13295
O         -2.26927        -8.18736         2.09860
O          1.91479        -2.41627        -1.36197
O         -5.75722         2.15855         2.47404
O          1.60095        -3.38809         2.13577
H          0.98333        -3.83955         2.76093
O          4.80577        -5.08778         1.65465
O         -4.72784         7.93146         2.13537
O          3.67918        -0.54157         1.30795
O          1.31283        -9.16540         2.36180
O          6.35625         3.81088        -1.35934
O         -5.77799        -3.34427        -1.37018
O         -2.04608        -5.50586        -0.47776
O          4.76296        -7.69485        -0.95236
H          5.18026        -7.05029        -1.57638
O         -2.09736         6.75319        -0.39095
O          1.94882         5.71469        -0.71278
O          8.71180         0.61037         0.55140
O          1.98877         2.28758        -0.54078
O         -7.30681        -5.49443         1.26819
O          0.64686         0.45267         2.23970
O         -7.15222         5.11504         2.14011
O          5.74236        -2.99211         0.86592
O          8.94061        -1.15132        -2.63962
O          4.41232        -1.59091        -2.21091
H          3.45963        -1.80217        -2.34494
O          3.68765         4.99683         2.52259
H          4.59508         4.80410         2.84254
O          4.15993        -8.87456         2.27580
O          3.59811         7.67395        -1.89163
O         -6.11846        -8.32631         0.37582
O         -4.28170        -0.27922         2.90074
O         -0.50312         9.38030         2.26315
H         -1.49556         9.51575         2.31314
O          0.54539        -0.15240        -1.30360
H          0.25403        -0.90486        -1.86606
O         -3.16647        -3.25836        -0.18115
O         -4.84315        -5.93596         1.92656
O         -7.69797         0.90288         1.23535
O          1.99362         8.54045         1.61527
O          5.53102         1.15539         1.66711
H          5.35273         0.23219         1.96212
O          6.94879         5.13558         1.75943
O         -2.01398         5.65388         2.99350
O          0.79645         2.99408         2.79354
O         -5.79842        -2.54430         2.14627
O          7.87639        -3.55080        -2.08348
O        -10.13375        -2.10254        -1.40389
O          0.84587         5.64257         2.70283
O         -5.37027         7.59278        -1.38480
H         -5.98355         7.78898        -2.12495
O          6.93112         7.83758         0.97082
H          7.20568         6.95155         1.30536
O          3.47942        -4.39994        -1.54410
H          2.91277        -3.84088        -2.12147
O          9.03407         3.23832         0.99001
H          9.00812         2.23278         1.06813
O         -9.53312         3.34615         0.43820
H         -9.52264         2.39701         0.68843
O          0.52159       -10.88675        -0.83653
H         -0.18187       -11.50133        -1.12590
O          6.58151        -7.78512         2.27296
H          5.83496        -8.27260         2.70035
O         -2.27382         1.16729         3.34284
H         -2.93211         1.62963         3.90424
O         -2.15978        -1.65117         2.99532
H         -2.41700        -0.79621         3.43326
O         -0.99405        -3.99243         2.72643
H         -1.30006        -3.19356         3.22548
O         -3.25483        10.06525         1.87009
H         -3.94204         9.85125         2.54117
O         -0.29976         7.95631         2.48656
H          1.40356         9.18533         2.06537
O         -8.45520        -4.60788         1.08510
H         -8.88442        -4.66910         1.97307
O         -0.17893        -7.02398         2.82885
H          0.05194        -7.81903         3.35914
O          5.88553        -5.46978        -1.86458
H          6.56337        -5.01187        -2.41649
H         11.93155        -1.16214        -1.48872
H         11.85534         1.27156        -1.73913
H         10.65467         3.38224        -1.43075
H          9.79676         5.45027        -0.47443
H          6.79432         7.04583        -2.33343
H          6.89134         9.71558        -0.79961
H          4.74360        10.71418        -1.35675
H          2.10969        10.38849        -1.79016
H         -0.24612        10.44480        -1.44555
H         -2.59620        10.71034        -0.87420
H         -5.06550        11.17742         0.29765
H         -7.09212         9.89088        -0.19790
H         -8.13497         7.63086        -0.90210
H         -9.12730         5.53902        -1.46017
H         -9.73045         3.45888        -2.54006
H        -10.09353         1.49070        -3.96088
H        -10.28079        -0.98117        -4.02853
H         -9.66595        -3.25301        -3.16126
H         -8.84194        -5.43062        -2.44307
H         -7.49344        -7.39804        -2.50978
H         -6.13500        -9.50641        -2.69066
H         -4.12684       -10.79056        -2.06560
H         -2.05154       -11.01828        -0.86911
H         -0.01743       -11.19421         1.15549
H          2.72221       -10.98724        -0.12502
H          5.23855       -11.09742         0.09489
H          7.32824        -9.82117         0.11774
H          8.55537        -7.55379         0.39589
H          9.30512        -5.91689        -1.39551
H         10.66482        -3.07048        -0.22863
