         344
 CSIRO Nanostructure Databank - Neutral Graphene Oxide Data Set
C          1.51836         1.98170         0.35499
C          1.47820         3.38051         0.30220
C          2.70681         1.29995         0.14041
C          2.63664         4.13553         0.02202
C          1.43400         6.31942         0.21159
C          1.44104         7.70588         0.23121
C          2.61811         5.58681        -0.00666
C          2.62656         8.44715         0.03498
C          1.44916        10.60864         0.54300
C          1.45469        11.98302         0.72839
C          2.62752         9.90358         0.20664
C          2.65672        12.71462         0.64967
C          1.62740        14.89683         1.32255
C          1.72841        16.28891         1.54620
C          2.68884        14.17296         0.75695
C          2.78261        17.02365         1.03113
C          2.96164        18.41970         1.31475
C          3.90063         2.01540        -0.14701
C          3.86337         3.44846        -0.21634
C          5.11780         1.33195        -0.35721
C          5.05329         4.17745        -0.53056
C          3.82381         6.30935        -0.26957
C          3.82915         7.74940        -0.25291
C          5.01438         5.59355        -0.57192
C          5.06656         8.46860        -0.44970
C          3.83524        10.62898         0.10382
C          3.85068        12.01060         0.36983
C          5.07583         9.98537        -0.47987
C          5.12550        12.76795         0.36852
C          3.84970        14.87545         0.31260
C          3.72717        16.34938         0.05368
C          5.07361        14.21902         0.10454
C          5.04255        17.06094        -0.06034
C          3.97147        19.15003         0.77591
C          4.95755        18.55949        -0.20054
C          6.30773         2.03213        -0.64346
C          6.28509         3.46115        -0.74750
C          7.53220         1.33566        -0.85834
C          7.49627         4.14247        -1.03774
C          6.20476         6.35283        -0.98796
C          6.25170         7.80365        -0.71766
C          7.48267         5.60480        -1.25450
C          7.53174         8.49144        -0.80641
C          6.38059        10.50917         0.15001
C          6.42661        12.04052         0.19809
C          7.57847         9.89797        -0.54407
C          7.56866        12.79733        -0.34524
C          6.28024        14.92195        -0.14067
C          6.24608        16.37093        -0.18710
C          7.52185        14.22426        -0.39432
C          7.48265        17.08860        -0.33416
C          6.28274        19.23346        -0.10630
C          7.47706        18.52639        -0.23975
C          8.70507         2.01832        -1.13880
C          8.69526         3.43799        -1.20185
C          9.97617         1.28154        -1.50342
C          9.96808         4.14937        -1.60364
C          8.77318         6.33742        -1.20767
C          8.73355         7.78803        -1.05405
C          9.94436         5.64520        -1.34445
C          9.97088         8.50203        -1.02893
C          8.75273        10.62798        -0.71044
C          8.77641        12.09435        -0.66100
C          9.97518         9.92363        -0.94943
C          9.93016        12.79390        -0.99417
C          8.69393        14.96188        -0.73451
C          8.69445        16.38559        -0.61785
C          9.83461        14.23674        -1.42691
C          9.89727        17.11733        -0.76642
C          8.72235        19.21527        -0.28975
C          9.91388        18.52772        -0.53866
C         11.19715         2.02632        -1.01588
C         11.17069         3.44137        -1.00377
C         12.35103         1.34357        -0.64471
C         12.29679         4.14466        -0.52787
C         11.28507         6.34344        -1.37755
C         11.21784         7.81648        -1.03940
C         12.24892         5.62815        -0.44344
C         12.38263         8.50857        -0.71294
C         11.20259        10.62782        -0.92316
C         11.22512        12.08369        -1.28797
C         12.38876         9.93440        -0.65056
C         12.40087        12.83340        -0.70594
C         11.25712        14.95913        -1.51956
C         11.18529        16.53303        -1.30105
C         12.39862        14.24417        -0.77596
C         12.32801        17.06177        -0.40942
C         11.16307        19.24869        -0.55226
C         12.37080        18.57848        -0.48798
C         13.54190         2.04624        -0.30049
C         13.49278         3.47008        -0.23335
C         14.74853         1.36170        -0.01658
C         14.77650         4.25734        -0.08310
C         13.41431         6.37776         0.08698
C         13.67379         7.74888        -0.54002
C         14.57334         5.57409         0.68287
C         14.73274         8.51492         0.21251
C         13.57291        10.66271        -0.22325
C         13.53951        12.12423        -0.22719
C         14.67624         9.95238         0.26296
C         14.68618        12.86129         0.15438
C         13.58772        14.94382        -0.48032
C         13.66967        16.41087        -0.79636
C         14.73575        14.26582        -0.00001
C         14.83350        17.11919        -0.14942
C         13.60822        19.25270        -0.37948
C         14.81368        18.56589        -0.14113
C         15.92441         2.04694         0.43034
C         15.92893         3.48286         0.50632
C         17.04518         1.33265         0.84767
C         17.07818         4.19292         0.95266
C         15.87059         6.35303         0.72167
C         15.81961         7.79082         0.69311
C         17.04798         5.66259         0.99615
C         17.04806         8.49343         1.10596
C         15.78910        10.69156         0.90641
C         15.83548        12.18543         0.78100
C         17.08056         9.97844         1.17108
C         17.14601        12.87793         0.81826
C         15.94640        14.98942         0.33424
C         15.94234        16.41529         0.29628
C         17.15116        14.28182         0.66630
C         17.11630        17.16288         0.88740
C         16.02216        19.27387         0.08597
C         17.20484        18.60495         0.43561
C         18.25650         1.98813         1.42838
C         18.25040         3.49666         1.28598
C         19.50356         1.39155         0.81015
C         19.51457         4.18978         1.59796
C         18.29948         6.38346         1.16423
C         18.31378         7.74571         1.03643
C         19.55084         5.71790         1.70409
C         19.53926         8.50406         0.62968
C         18.37089        10.70471         1.02040
C         18.36334        12.14682         0.95070
C         19.55930         9.98744         0.94821
C         19.60929        12.83872         0.90115
C         18.40204        14.99877         0.75412
C         18.42066        16.41506         0.73534
C         19.62865        14.26916         0.82136
C         19.63793        17.11746         0.73436
C         18.43154        19.27097         0.50139
C         19.66346        18.56918         0.66675
C         20.71278         2.04326         0.80631
C         20.80290         3.41516         1.38259
C         21.93089         1.39500         0.42222
C         22.10609         4.15734         1.25603
C         20.81286         6.39813         1.16970
C         20.81145         7.74306         0.88590
C         22.10507         5.68761         1.21181
C         22.04103         8.47626         0.69197
C         20.82407        10.65841         0.88838
C         20.84688        12.11020         0.92669
C         22.00956         9.89999         0.72687
C         22.06370        12.82042         0.89255
C         20.86544        14.97618         0.78613
C         20.87626        16.40043         0.73368
C         22.10681        14.25320         0.79750
C         22.10950        17.11084         0.66505
C         20.88568        19.24455         0.64910
C         22.12866        18.54491         0.63474
C         23.17155         2.03694         0.41341
C         23.25622         3.47794         0.64463
C         24.39045         1.31636         0.26532
C         24.40078         4.18292         0.31779
C         23.29648         6.35915         0.66010
C         23.26776         7.77535         0.55009
C         24.45311         5.62257         0.33425
C         24.49325         8.47431         0.24606
C         23.31087        10.57784         0.80431
C         23.32292        12.06735         0.96093
C         24.52196         9.88558         0.30242
C         24.60883        12.76744         0.66720
C         23.32554        14.96582         0.69222
C         23.34024        16.38895         0.57121
C         24.61534        14.25136         0.62814
C         24.55193        17.09734         0.36264
C         23.36348        19.22257         0.56234
C         24.58158        18.51675         0.41027
C         25.61438         1.98742         0.12303
C         25.55457         3.43707        -0.30715
C         26.85127         1.35051         0.29350
C         26.86553         4.17124        -0.18956
C         25.65723         6.31099        -0.08230
C         25.66769         7.75822        -0.10449
C         26.85032         5.60510        -0.31742
C         26.82092         8.47877        -0.50376
C         25.66660        10.58717        -0.10622
C         25.63279        12.09385        -0.22351
C         26.80075         9.88006        -0.56422
C         27.02435        12.70956         0.01459
C         25.81441        14.91452         0.07473
C         25.79531        16.40614        -0.14357
C         26.97465        14.22397        -0.12029
C         27.06049        17.02877         0.43741
C         25.84240        19.20465         0.28067
C         27.06515        18.52863         0.23044
C         28.07478         2.07115         0.24230
C         28.05130         3.48039        -0.09958
C         29.28824         1.51006         0.68492
C         29.36534         4.14668        -0.40220
C         28.10478         6.31010        -0.54167
C         28.04200         7.74631        -1.00984
C         29.29764         5.65294        -0.47886
C         29.32059         8.53113        -0.77381
C         27.95235        10.59052        -1.25502
C         27.99046        12.10773        -0.99036
C         29.29103         9.92859        -0.97341
C         29.24252        12.86300        -1.28248
C         28.22803        14.94239        -0.35078
C         28.29050        16.32109        -0.09286
C         29.40090        14.24638        -0.75490
C         29.51190        17.01868        -0.21573
C         28.30847        19.17533         0.11712
C         29.52742        18.45511        -0.05133
C         30.43550         2.31076         0.88969
C         30.48209         3.63369         0.47530
C         31.60162         4.50029         0.72258
C         30.62852         6.34722        -0.69298
C         30.55087         7.86598        -0.62477
C         31.67921         5.76142         0.22414
C         31.73037         8.62904        -0.62552
C         30.48718        10.66091        -1.11626
C         30.44197        12.05019        -1.76454
C         31.70222         9.99838        -0.88687
C         31.72656        12.83516        -1.65033
C         30.63693        14.89990        -0.82700
C         30.71456        16.31007        -0.54144
C         31.79473        14.12536        -1.25795
C         31.92695        17.04481        -0.61055
C         30.76195        19.12919        -0.14583
C         31.94096        18.42130        -0.40212
O         25.06320        13.47943         1.85207
O          6.00618        12.50610         1.54246
O         16.98831         9.19966         2.41958
O         23.48268        11.20340         2.14144
O         22.40010         4.94194         2.44946
O         20.23181         3.53355         2.72382
O         15.41568        11.53275         2.04712
O         12.20538         6.23846         0.89969
O         28.10104        12.85475        -2.23547
O          6.63613         6.01842        -2.38557
O         25.26799         3.41393        -1.75188
H         26.06705         3.06523        -2.20208
O         11.70709        14.79246        -2.89935
H         11.05960        15.28873        -3.45581
O         30.23200        11.75733        -3.18256
H         30.02401        12.60738        -3.62682
O         25.21166        12.41232        -1.57731
H         25.89781        12.08219        -2.20000
O          3.07560        16.48116        -1.26871
H          3.23816        17.41500        -1.56240
O         11.31622        17.16523        -2.60007
H         12.28208        17.30393        -2.76609
O         10.08291         3.98015        -3.06972
H          9.25303         4.32607        -3.46420
O         19.41694         8.51759        -0.85488
H         19.43793         7.58749        -1.16721
O          5.11846        10.38947        -1.88049
H          4.35152         9.98627        -2.33865
O         11.39414        12.09451        -2.75881
H         11.70761        13.00425        -3.00666
O         27.49121        12.34451         1.32538
H         26.84759        12.72601         1.97169
O         27.91800         7.65570        -2.46801
H         27.77037         8.58217        -2.79602
O         11.85756         6.21531        -2.71603
H         11.17860         6.48645        -3.36893
O          4.41021        18.83998        -1.56977
H          5.13417        18.65623        -2.20718
O         31.05125         6.05070        -2.07394
H         30.39888         6.48654        -2.66597
O         15.18739         4.63153        -1.43785
H         15.22854         3.81347        -1.97668
O         29.70792         3.69911        -1.76691
H         30.43021         4.30140        -2.08035
O         19.54170         6.02484         3.12257
H         20.18561         5.41075         3.54573
O         14.23550         7.50366        -1.86153
H         13.55294         7.02231        -2.39254
O          6.43586        10.00497         1.50258
H          6.24374        10.76884         2.09923
O         27.02907        16.80110         1.87241
H         27.82776        17.21331         2.26231
O          9.34514        14.15957        -2.82128
H          9.63502        13.28925        -3.18057
O         27.71673        10.41228        -2.68770
H         28.45744        10.89441        -3.14088
O         16.85527        17.22095         2.33456
H         17.61958        17.67259         2.75152
O         10.04390         1.17289        -2.93856
H         10.13514         2.09508        -3.28553
O         25.83881        16.64797        -1.57988
H         25.07921        16.18630        -1.99189
O         13.86056        16.52957        -2.24955
H         13.47355        15.71963        -2.66327
O         18.26148         1.67397         2.86531
H         19.00975         2.19029         3.25327
O         12.01934        16.67699         0.94720
H         12.72083        17.02829         1.53495
O         14.25796         5.23978         2.04636
H         13.31325         5.48271         2.19596
H          0.59769         1.42384         0.57618
H          0.52045         3.88328         0.49039
H          2.73741         0.20228         0.19040
H          0.48308         5.79938         0.38622
H          0.49307         8.22245         0.42804
H          0.49154        10.07941         0.62993
H          0.50621        12.49924         0.92952
H          0.75304        14.36386         1.72060
H          0.97181        16.78698         2.17128
H          2.25086        18.89800         2.00743
H          5.13887         0.23410        -0.29276
H          4.08733        20.21176         1.03912
H          7.53339         0.23615        -0.81914
H          6.30601        20.33221        -0.06077
H          9.95765         0.24206        -1.09094
H          8.73953        20.30637        -0.15375
H         12.36501         0.24369        -0.66548
H         11.14001        20.34858        -0.52258
H         14.76547         0.26334        -0.06449
H         13.61484        20.35324        -0.39500
H         17.01819         0.23242         0.83722
H         16.04011        20.36316        -0.07142
H         19.44527         0.37000         0.40482
H         18.46586        20.35367         0.30421
H         21.88758         0.32164         0.18436
H         20.89252        20.34337         0.59281
H         24.37451         0.21992         0.36322
H         23.37493        20.32260         0.57479
H         26.87138         0.28719         0.57929
H         25.83368        20.30486         0.23193
H         29.30609         0.45656         0.99981
H         28.34409        20.27582         0.09405
H         31.30107         1.87559         1.41256
H         32.41959         4.11763         1.35382
H         32.56612         6.36943         0.45405
H         32.70493         8.13424        -0.51302
H         32.65243        10.54356        -0.96767
H         32.64131        12.34418        -2.01404
H         32.77556        14.62231        -1.27460
H         32.87194        16.53281        -0.83649
H         30.79286        20.22115        -0.02207
H         32.89418        18.96531        -0.46302
