         732
 CSIRO Nanostructure Databank - Neutral Graphene Oxide Data Set
C         22.85963        24.58958        -0.23001
C         21.66540        25.29003        -0.03721
C         22.89355        27.38680         0.17124
C         21.67795        26.66277         0.17054
C         22.89817        28.83321         0.28593
C         21.67851        29.59595         0.51391
C         22.81928        31.76518         0.14440
C         21.63622        30.94965         0.48980
C         22.91226        33.25341         0.47388
C         21.77531        33.95579         1.10072
C         23.07671        36.03351         1.20972
C         21.86092        35.26786         1.41598
C         23.08240        37.43388         1.31512
C         21.89200        38.19601         1.47175
C         23.15115        40.27917         1.76024
C         21.92039        39.57116         1.59821
C         23.14056        41.67344         2.23633
C         21.96909        42.55221         2.02174
C         23.24635        44.57020         2.81694
C         22.02077        43.87620         2.24015
C         23.22188        46.07111         2.56562
C         22.05809        46.78477         2.55555
C         23.20334        48.89431         2.06847
C         22.05080        48.20097         2.32803
C         25.42699        23.17144        -0.57527
C         25.34952        24.52368        -0.29956
C         24.09404        25.25756        -0.20987
C         25.37003        27.39312        -0.05647
C         24.11907        26.67520        -0.02099
C         25.33709        28.81473         0.01481
C         24.09614        29.52498         0.13298
C         25.40054        31.74772         0.11800
C         24.09876        31.00149        -0.03756
C         25.43145        33.18479         0.46423
C         24.24343        33.91048         0.62584
C         25.55274        35.98054         0.95727
C         24.28892        35.30886         0.92009
C         25.61545        37.42281         1.16825
C         24.33906        38.21088         0.99830
C         25.61779        40.28132         1.70372
C         24.37264        39.59976         1.61514
C         25.68734        41.66984         1.87907
C         24.49467        42.40597         2.30674
C         25.67775        44.52218         1.98904
C         24.50402        43.87327         2.30313
C         25.74425        46.00677         2.10107
C         24.49839        46.79643         2.40198
C         25.67198        48.93223         1.76761
C         24.48230        48.24731         2.05743
C         25.72118        50.33468         1.52840
C         27.88946        23.09939        -0.52973
C         26.66318        22.48313        -0.70975
C         27.90843        24.48471        -0.03457
C         26.59153        25.24274         0.03703
C         27.85661        27.40095        -0.23641
C         26.62530        26.71430        -0.09047
C         27.77316        28.83918        -0.24869
C         26.56777        29.51108         0.01174
C         27.94833        31.66827         0.43363
C         26.62213        30.93952         0.37960
C         27.93888        33.13192         0.39900
C         26.70830        33.83135         0.57405
C         28.04863        35.87243         0.95143
C         26.73332        35.23358         0.81770
C         28.09104        37.35265         1.22576
C         26.80785        38.07881         1.29195
C         28.12276        40.26648         1.27496
C         26.90836        39.50656         1.77339
C         28.12839        41.66821         1.32088
C         26.90799        42.39893         1.64388
C         28.18744        44.57526         1.65159
C         26.89079        43.79676         1.68753
C         28.04861        45.95515         1.01842
C         26.75265        46.74647         1.23779
C         28.12789        48.89265         1.04474
C         26.99327        48.18261         1.77227
C         28.10900        50.32762         0.90781
C         26.87699        50.99823         1.15889
C         30.41568        20.43498        -1.35395
C         29.20830        21.10653        -1.23586
C         30.38670        23.10408        -0.47240
C         29.16175        22.43660        -0.77231
C         30.36909        24.50090        -0.10276
C         29.17107        25.25069        -0.08833
C         30.41525        27.33837        -0.17209
C         29.14566        26.67823        -0.16968
C         30.66606        28.62147        -0.72274
C         28.87177        29.69970        -0.61473
C         30.37755        31.68250        -0.34556
C         29.11755        30.97893        -0.15201
C         30.41843        33.06278        -0.11542
C         29.18630        33.80935         0.19974
C         30.40853        35.99041        -0.04472
C         29.22436        35.18650         0.39858
C         30.45665        37.41201         0.47326
C         29.31483        38.10928         0.86228
C         30.52500        40.24978         0.69226
C         29.31287        39.53970         0.96366
C         30.53207        41.68650         0.68623
C         29.33580        42.40800         1.01576
C         30.55001        44.53326         0.73834
C         29.36350        43.81651         1.07344
C         30.60005        45.96812         0.73968
C         29.31386        46.70680         0.78739
C         30.55903        48.90579         0.71599
C         29.28355        48.18220         0.80382
C         30.53463        50.33589         0.38617
C         29.28987        51.02544         0.48530
C         30.47056        53.09547        -0.05369
C         29.30380        52.43267         0.22838
C         33.00738        19.03643        -1.86748
C         32.87777        20.24352        -1.00738
C         31.62868        21.04309        -0.98199
C         32.88882        23.09184        -0.29125
C         31.62991        22.39669        -0.54283
C         32.90736        24.47371         0.10480
C         31.60681        25.12361         0.33405
C         32.89031        27.40542         0.32153
C         31.60487        26.71168         0.38489
C         32.93804        28.77113         0.04407
C         31.74232        29.43783        -0.39843
C         32.96055        31.66120        -0.37210
C         31.65538        30.91974        -0.60635
C         32.91965        33.10731        -0.07398
C         31.68077        33.80266        -0.06119
C         32.91341        35.93245         0.18425
C         31.69542        35.21579         0.08460
C         32.91116        37.36391         0.27669
C         31.70843        38.09620         0.39267
C         32.95808        40.23827         0.26319
C         31.72707        39.52933         0.49002
C         32.93986        41.65614         0.12499
C         31.72310        42.38621         0.37186
C         32.89616        44.52999        -0.03499
C         31.73145        43.81827         0.36710
C         32.94847        45.93776         0.00946
C         31.77797        46.64610         0.41899
C         33.01297        48.84776         0.02761
C         31.84345        48.12158         0.53729
C         32.97848        50.25802        -0.07822
C         31.74049        50.99614         0.07308
C         32.93935        53.11156        -0.40184
C         31.73314        52.42060        -0.12992
C         32.98854        54.55524        -0.48709
C         35.47411        18.87528        -1.46376
C         34.18087        18.42616        -2.11853
C         35.39592        20.40163        -1.30137
C         34.17775        20.97669        -0.70161
C         35.33046        23.19265        -0.49010
C         34.11809        22.44146        -0.50143
C         35.34349        24.54657        -0.03952
C         34.10333        25.19080         0.25860
C         35.38758        27.37667         0.48814
C         34.10464        26.63134         0.78089
C         35.40523        28.75340         0.33479
C         34.18231        29.51290         0.13180
C         35.40960        31.64455         0.14544
C         34.19291        30.90224        -0.01392
C         35.39929        33.06777         0.11080
C         34.14784        33.80302         0.07312
C         35.40446        35.94585         0.14456
C         34.15627        35.21788         0.18230
C         35.42295        37.34940         0.14027
C         34.19531        38.09177         0.56759
C         35.38072        40.22350        -0.13680
C         34.17743        39.53797         0.14764
C         35.35741        41.63685        -0.35758
C         34.13130        42.32766        -0.23300
C         35.34834        44.51498        -0.79441
C         34.05266        43.76664        -0.52895
C         35.35637        45.97509        -0.59782
C         34.17115        46.66529        -0.29872
C         35.40957        48.80873        -0.48183
C         34.19527        48.10827        -0.26193
C         35.41378        50.25203        -0.50621
C         34.18322        50.96536        -0.39096
C         35.38775        53.07196        -0.81648
C         34.17598        52.38851        -0.54245
C         35.38208        54.53178        -1.21709
C         34.11899        55.22996        -0.79547
C         37.84201        16.04988        -1.55855
C         36.77097        16.76195        -1.98663
C         38.05675        18.85385        -1.64294
C         36.75030        18.26536        -2.16686
C         38.24653        20.22285        -1.69386
C         36.37485        21.29983        -1.60222
C         37.81148        23.15803        -0.73758
C         36.53473        22.57375        -0.94178
C         37.78509        24.52037        -0.27296
C         36.60377        25.20652         0.04540
C         37.90399        27.36702         0.33135
C         36.65976        26.59056         0.68656
C         37.89587        28.79902         0.36986
C         36.65721        29.49562         0.33080
C         37.88558        31.61339         0.37589
C         36.64783        30.91229         0.27724
C         37.84816        33.07788         0.50014
C         36.61408        33.80204         0.21793
C         37.86458        35.94038        -0.09416
C         36.64077        35.21926         0.10531
C         37.83621        37.36158        -0.29298
C         36.62303        38.07484        -0.10759
C         37.84446        40.21222        -0.43443
C         36.62371        39.50338        -0.22742
C         37.82385        41.63506        -0.54853
C         36.60409        42.34921        -0.56963
C         37.82609        44.50257        -0.87391
C         36.61274        43.77090        -0.71602
C         37.80682        45.93653        -0.97037
C         36.59249        46.66468        -0.76630
C         37.86718        48.76957        -0.83955
C         36.62024        48.08486        -0.70003
C         37.93620        50.23608        -0.49077
C         36.62570        50.96424        -0.66060
C         37.87331        53.09296        -0.97589
C         36.61386        52.36782        -0.83225
C         37.88798        54.53243        -0.87029
C         36.66413        55.25441        -0.83752
C         37.91520        57.30264        -0.42752
C         36.70240        56.63170        -0.62048
C         40.28812        14.49541        -0.80261
C         40.27429        15.91420        -0.81698
C         39.09575        16.65806        -1.15014
C         40.32122        18.76147        -0.70215
C         39.14029        18.07496        -1.13341
C         40.29211        20.17222        -0.50046
C         39.19646        20.94678        -0.92152
C         40.24772        23.03829        -0.25491
C         39.08883        22.39852        -0.70011
C         40.34833        24.50034        -0.30789
C         39.05067        25.26977        -0.29184
C         40.34672        27.36833         0.04024
C         39.08634        26.68917         0.09526
C         40.36637        28.78400         0.14624
C         39.12954        29.51080         0.30626
C         40.39397        31.67252         0.34048
C         39.11291        30.92854         0.38807
C         40.39067        33.10581        -0.00465
C         39.19615        33.87138         0.30016
C         40.30566        35.88773        -0.55410
C         39.10731        35.25360        -0.14382
C         40.23489        37.30759        -0.96877
C         39.03461        38.08430        -0.58849
C         40.41009        40.21065        -0.62014
C         39.07150        39.47408        -0.59167
C         40.23620        41.60673        -1.24584
C         39.13489        42.38790        -0.52078
C         40.26346        44.50397        -1.24966
C         39.06159        43.82006        -0.97018
C         40.25420        45.92066        -1.31904
C         39.02992        46.63556        -1.14345
C         40.35651        48.80318        -1.05830
C         39.03735        48.06657        -1.07952
C         40.21743        50.24566        -1.49428
C         39.10017        50.94287        -1.13630
C         40.32573        53.09450        -1.18949
C         39.07170        52.39602        -1.14551
C         40.37065        54.49819        -0.92567
C         39.12853        55.22544        -0.76451
C         40.41515        57.33366        -0.35296
C         39.14234        56.62907        -0.51692
C         40.50088        58.62666         0.08314
C         42.66553        14.46436        -0.30106
C         41.45998        13.79647        -0.53316
C         42.72878        15.87555        -0.30464
C         41.50458        16.61092        -0.53015
C         42.75817        18.73951        -0.24214
C         41.51494        18.02052        -0.44233
C         42.74028        20.10202         0.00795
C         41.44761        20.80481         0.14925
C         42.72283        23.03949         0.45762
C         41.41593        22.31179         0.27359
C         42.75254        24.50378         0.30175
C         41.59658        25.20411         0.07140
C         42.80282        27.35771        -0.00032
C         41.58333        26.65431         0.02139
C         42.81345        28.75965        -0.18724
C         41.59621        29.45220        -0.04147
C         42.73345        31.55691        -0.78674
C         41.65203        30.91977         0.05055
C         42.79444        33.04945        -0.63507
C         41.54953        33.75951        -0.43648
C         42.78710        35.89317        -0.79291
C         41.51177        35.18218        -0.60853
C         42.78403        37.33076        -1.17551
C         41.47764        38.02332        -1.38237
C         42.77558        40.14670        -1.50918
C         41.54424        39.48874        -1.30404
C         42.78124        41.62415        -1.56811
C         41.54416        42.36483        -1.37472
C         42.69162        44.50104        -1.78594
C         41.50767        43.75995        -1.46167
C         42.68836        45.89370        -1.85336
C         41.46789        46.65262        -1.61927
C         42.65372        48.70184        -2.40416
C         41.48360        48.03214        -1.69161
C         42.69027        50.23057        -2.28149
C         41.42150        50.98600        -1.93496
C         42.76058        53.04871        -1.49661
C         41.51561        52.39598        -1.50260
C         42.82169        54.41903        -1.08189
C         41.61649        55.14500        -0.85790
C         42.91027        57.14247        -0.02148
C         41.69531        56.65130        -0.79712
C         42.93922        58.59564         0.25855
C         41.77290        59.28419         0.28858
C         45.20268        15.90678         0.18870
C         43.97258        16.57563        -0.15346
C         45.24357        18.68767        -0.25018
C         44.02088        18.01146        -0.26169
C         45.28955        20.14663        -0.34113
C         43.97116        20.88738        -0.14818
C         45.29604        23.04754         0.08057
C         44.03097        22.30174         0.31776
C         45.31211        24.43890         0.17773
C         44.06050        25.17991         0.46154
C         45.33805        27.34859        -0.11846
C         44.08063        26.67921         0.26141
C         45.32296        28.72959        -0.42225
C         44.06598        29.46454        -0.42453
C         45.25691        31.56543        -0.89438
C         44.05668        30.84054        -0.65936
C         45.24690        32.96209        -0.95904
C         44.00510        33.70815        -0.84524
C         45.24148        35.82802        -1.08411
C         44.03869        35.13775        -0.95335
C         45.27421        37.27037        -1.34775
C         43.99509        37.92147        -1.85444
C         45.23353        40.10148        -2.07401
C         43.97120        39.42987        -1.75272
C         45.23406        41.59534        -2.11115
C         43.94522        42.29033        -1.88900
C         45.13414        44.44035        -1.40802
C         43.96308        43.77103        -2.16162
C         45.19169        45.87807        -1.87517
C         43.92564        46.63110        -1.95129
C         45.17793        48.75801        -1.89833
C         43.95719        48.01706        -2.04604
C         45.18444        50.19107        -1.94665
C         43.96950        50.93128        -2.07286
C         45.20425        53.04205        -1.78844
C         43.98073        52.34180        -1.81797
C         45.27476        54.39462        -1.35264
C         44.09208        55.04009        -0.90613
C         45.51268        56.90272        -0.01662
C         44.18357        56.31799        -0.17771
C         46.40322        16.54654         0.21022
C         47.75161        18.72997         0.16360
C         46.55180        17.93879        -0.34220
C         47.73955        20.16110         0.16747
C         46.53522        20.88519        -0.05207
C         47.75380        23.02445         0.06844
C         46.52089        22.30363        -0.00455
C         47.75698        24.45099        -0.02360
C         46.53385        25.17299         0.00991
C         47.78184        27.28808        -0.40085
C         46.54813        26.60782        -0.13770
C         47.77690        28.70829        -0.66044
C         46.54348        29.39846        -0.69268
C         47.78098        31.58541        -0.88652
C         46.52439        30.81565        -1.20855
C         47.75151        32.97258        -0.82721
C         46.48716        33.69693        -0.93896
C         47.67676        35.87168        -0.54758
C         46.46506        35.08511        -0.94405
C         47.73282        37.21615        -1.23381
C         46.45992        37.95236        -1.39380
C         47.78974        40.14536        -1.51559
C         46.55401        39.36545        -1.85227
C         47.77020        41.56281        -1.47899
C         46.54465        42.32222        -1.83597
C         47.64283        44.45259        -1.20599
C         46.48131        43.75694        -1.50139
C         47.63754        45.90399        -1.12482
C         46.45962        46.62891        -1.64737
C         47.54389        48.80408        -1.20612
C         46.39603        48.09590        -1.56434
C         47.58523        50.21340        -1.39587
C         46.42092        50.88107        -1.80748
C         47.72545        53.04875        -1.83367
C         46.46219        52.32376        -2.22166
C         47.71027        54.53484        -2.08488
C         46.52463        55.10201        -1.32882
C         46.61269        56.31167        -0.59187
C         50.12198        18.78562         0.75055
C         48.94938        18.07911         0.46029
C         50.16284        20.19069         0.69482
C         48.95695        20.88958         0.39004
C         50.20083        23.03622         0.34050
C         48.97219        22.31222         0.25529
C         50.23255        24.43443         0.04976
C         48.99977        25.15204        -0.16224
C         50.24971        27.19820        -0.82023
C         48.99396        26.54229        -0.42650
C         50.26891        28.68685        -1.06074
C         49.00440        29.43767        -0.87027
C         50.25592        31.59455        -0.88297
C         49.02783        30.85463        -0.89673
C         50.23460        32.98815        -0.69824
C         48.98173        33.71614        -0.67719
C         50.16260        35.87792        -0.42679
C         48.97075        35.11477        -0.62177
C         50.18466        37.26398        -0.57142
C         49.01782        37.97642        -1.14277
C         50.12350        40.16285        -0.70609
C         48.96732        39.45599        -1.12405
C         50.10927        41.57926        -0.73563
C         48.93076        42.29208        -1.07872
C         49.99525        44.48590        -0.53177
C         48.89129        43.75010        -0.96986
C         49.96654        45.92300        -0.41180
C         48.75707        46.61562        -0.76721
C         50.02484        48.79748        -0.74007
C         48.69682        48.10749        -0.53072
C         50.02647        50.18873        -1.01685
C         48.84275        50.91975        -1.25518
C         50.12730        53.06654        -1.27235
C         48.87880        52.35648        -1.45498
C         50.10811        54.50613        -1.36378
C         49.00249        55.20001        -1.72468
C         52.58182        20.31355         1.33028
C         51.38657        20.94200         0.91535
C         52.62004        23.08766         0.84744
C         51.40484        22.35109         0.69472
C         52.65039        24.48994         0.53554
C         51.46964        25.12515         0.08254
C         52.78497        27.26530        -0.28237
C         51.56315        26.47902        -0.48221
C         52.92393        28.64474        -0.92359
C         51.58927        29.41089        -1.15407
C         52.75615        31.62185        -0.51362
C         51.59607        30.95446        -1.21312
C         52.66022        33.02420        -0.28766
C         51.45287        33.70688        -0.43118
C         52.62486        35.92008         0.02182
C         51.35170        35.12339         0.10268
C         52.57394        37.33960         0.03564
C         51.35703        38.03972        -0.26060
C         52.48392        40.18499         0.17277
C         51.32954        39.45151        -0.29381
C         52.48128        41.60865         0.20802
C         51.35519        42.30382        -0.42938
C         52.31389        44.48741         0.50936
C         51.28746        43.80820        -0.32499
C         52.26233        46.00955         0.54418
C         51.11661        46.67361        -0.09876
C         52.46247        48.74343        -0.19784
C         51.19500        48.08539        -0.36618
C         52.59230        50.12405        -0.69071
C         51.32027        50.88520        -1.12750
C         52.59696        52.98793        -0.94839
C         51.34206        52.35803        -1.09826
C         53.75191        21.03264         1.50638
C         55.03478        23.18238         1.38954
C         53.80713        22.42536         1.25819
C         55.05254        24.57809         1.07116
C         53.86543        25.23450         0.63423
C         55.13499        27.37669         0.48244
C         53.90257        26.63450         0.26717
C         55.12854        28.81618         0.27222
C         53.99890        29.46660        -0.23292
C         55.16605        31.63224        -0.02816
C         53.95522        30.90367        -0.26665
C         55.13062        33.12002        -0.32180
C         53.86066        33.74235         0.29866
C         55.03682        36.00970         0.34347
C         53.84512        35.25775         0.14792
C         54.98600        37.39708         0.59170
C         53.73942        38.08027         0.39320
C         54.73269        40.18534         1.33124
C         53.65140        39.47906         0.56381
C         54.75826        41.66857         1.11675
C         53.61911        42.35186         0.70059
C         54.62858        44.56843         1.33184
C         53.58446        43.80888         0.80268
C         54.64943        46.01615         1.21431
C         53.53076        46.71723         0.74557
C         54.80405        48.84573         0.62339
C         53.58428        48.11148         0.38309
C         54.86980        50.24354         0.31628
C         53.76083        50.91687        -0.30222
C         53.74840        52.29575        -0.56965
C         57.42189        23.28141         1.87699
C         56.22927        22.57200         1.81970
C         57.47656        24.64635         1.54335
C         56.27368        25.31681         1.19201
C         57.47002        27.51965         1.44181
C         56.27091        26.73292         0.96028
C         57.54238        28.91250         0.87462
C         56.34900        29.55462         0.52266
C         57.61979        31.67245         0.29522
C         56.35340        30.97083         0.27660
C         57.64664        33.03454        -0.03749
C         56.39069        33.82367         0.13495
C         57.54551        36.14709         0.51177
C         56.33607        35.29771         0.40342
C         57.43141        37.45071         1.20126
C         56.14904        38.16562         1.02498
C         57.28320        40.32028         1.54595
C         56.09098        39.52807         1.25282
C         57.19852        41.70851         1.79624
C         55.86822        42.37218         1.78114
C         57.00659        44.64113         2.42063
C         55.77059        43.86432         1.97155
C         57.00574        46.08466         1.96120
C         55.88392        46.74804         1.49884
C         57.08365        48.94985         1.51608
C         55.92419        48.18997         1.22519
C         57.13356        50.32146         1.19073
C         56.05540        50.95757         0.61425
C         59.97912        24.65442         1.52442
C         58.75830        25.35731         1.49415
C         60.00356        27.46141         1.31058
C         58.77399        26.76254         1.36148
C         60.01424        28.91770         1.15567
C         58.80282        29.60517         0.87613
C         60.09831        31.71748         0.55333
C         58.85096        30.99892         0.54529
C         60.12326        33.09369         0.13849
C         58.89792        33.61410        -0.27631
C         60.04806        36.13938         0.83531
C         58.77785        35.76311         0.10501
C         60.03394        37.70439         0.82913
C         58.69394        38.23257         1.37898
C         59.74461        40.43318         1.73046
C         58.57331        39.70119         1.52025
C         59.66244        41.85231         1.89169
C         58.38207        42.50058         1.94654
C         59.51645        44.66040         2.25521
C         58.32717        43.92334         2.13155
C         59.49646        46.10928         2.47011
C         58.21056        46.81866         2.39226
C         59.57231        48.97305         2.16721
C         58.24808        48.34178         2.19613
C         61.19016        25.33901         1.45196
C         61.20762        26.72714         1.34763
C         61.22141        29.65755         1.21620
C         61.26756        31.01322         0.94363
C         61.27610        34.01418         0.09711
C         61.24011        35.36282         0.28064
C         61.16108        38.41517         1.53223
C         61.01239        39.71171         1.87657
C         60.84207        42.63643         1.97628
C         60.77052        43.99746         2.13593
C         60.64600        46.84072         2.67753
C         60.67734        48.26366         2.52913
O         31.43552        48.58966         1.87538
O         55.37410        42.95565         3.05806
O         24.86269        31.43455        -1.21301
O         40.59078        37.47010        -2.41550
O         31.44583        25.87967         1.57320
O         39.78899        25.05534        -1.55288
O         28.47817        46.09782        -0.35511
O         51.79184        45.18140         1.68011
O         41.12038        21.44678         1.42700
O         41.84363        50.82695        -3.33988
O         28.31227        36.40705         2.32956
O         56.31739        34.28724         1.53680
O         27.22579        24.70688         1.25281
O         50.99883        26.50054        -1.85578
O         44.14264        26.07744         1.61411
O         51.82344        43.19985        -1.53784
O         45.98836        39.51824        -3.20225
O         22.59242        32.77117        -0.88756
O         46.03853        42.10356        -3.22531
O         38.61427        33.60035         1.61652
O         25.51879        46.47445         3.45879
O         34.46275        44.09419        -1.90157
O         32.45139        31.38643        -1.74192
O         46.09024        46.11618        -2.99303
O         33.51075        20.15749         0.32196
O         58.08079        37.54195         2.53225
O         29.71741        29.16465        -1.58989
O         52.22091        50.28525        -2.10729
O         50.91363        28.95076        -2.37335
O         57.93388        47.74430         3.49270
O         43.46059        22.55777         1.63424
O         58.89430        34.84719        -0.93469
O         48.57275        37.33514        -2.41193
O         41.40674        31.39322         1.40148
O         27.30652        31.13558         1.66142
O         44.54714        20.72834        -1.48492
O         43.34472        56.30645         1.07430
O         23.83480        41.84243         3.51568
O         37.38688        20.96457        -2.50231
O         42.98201        36.99911         0.21955
O         34.28603        38.12963         2.05509
H         33.45592        38.53796         2.38354
O         53.80482        33.47578         1.72574
H         54.67099        33.78282         2.10087
O         23.21140        44.39237         4.25825
H         23.35715        43.42832         4.42306
O         46.81876        17.78013        -1.79096
H         46.02004        17.37710        -2.19329
O         36.78111        26.33322         2.12834
H         35.86463        26.28300         2.49730
O         60.04160        38.12023        -0.56404
H         60.93844        37.96875        -0.92813
O         28.51771        44.87020         3.04882
H         28.56131        44.02299         3.53964
O         39.50032        42.50778         0.90445
H         38.77485        42.98624         1.35884
O         54.33822        40.03038         2.75861
H         54.37855        39.07270         2.96938
O         26.09483        46.86872        -0.04548
H         26.80161        46.79042        -0.73232
O         27.50223        48.13291         3.12402
H         26.83793        47.65291         3.67950
O         51.83714        31.30405        -2.61902
H         51.34568        30.63628        -3.15353
O         44.76073        44.42338        -0.00075
H         45.48346        44.83148         0.52112
O         42.45277        48.39434        -3.81522
H         41.96821        49.15833        -4.20763
O         44.13633        43.97374        -3.57836
H         44.94160        43.47188        -3.85645
O         27.15206        39.34843         3.22136
H         27.06459        40.23229         3.63736
O         59.92792        35.67088         2.19685
H         59.17799        36.15901         2.62697
O         43.90891        37.59151        -3.27020
H         44.64122        38.08094        -3.71672
O         46.51291        30.68548        -2.68603
H         47.34451        30.23047        -2.94156
O         38.24527        50.26498         0.96091
H         37.46925        49.89227         1.43264
O         36.59902        18.54585        -3.57757
H         37.41924        18.27056        -4.03615
O         40.86095        40.29058         0.75811
H         40.37734        41.02950         1.20216
O         56.96169        44.74328         3.87187
H         56.41844        43.98256         4.19003
O         57.21949        27.71275         2.88957
H         57.97536        28.22509         3.24849
O         55.06609        33.29820        -1.75665
H         54.32274        32.75856        -2.10469
O         40.72807        48.91026         0.36873
H         39.97541        49.36759         0.82309
O         35.38056        54.54605        -2.69340
H         34.57404        54.07157        -2.98718
O         42.28799        31.32530        -2.17249
H         43.02131        31.58827        -2.76931
O         47.48057        36.21124         0.86967
H         47.52705        35.38216         1.39150
O         51.11894        34.94045         1.54780
H         51.89947        34.44630         1.89717
O         39.73766        41.40842        -2.59162
H         40.39558        40.88084        -3.09277
O         34.02078        26.51878         2.25090
H         33.11184        26.17845         2.44930
O         53.45681        28.38478        -2.25463
H         52.70194        28.03283        -2.78263
O         30.20126        36.17137        -1.50732
H         30.34687        35.29958        -1.93478
O         35.50847        18.34863        -0.11862
H         34.75108        18.75372         0.37278
O         48.41514        48.24491         0.91682
H         49.16102        47.82730         1.39982
O         46.42832        52.31447        -3.69444
H         46.56922        53.25574        -3.97277
O         47.47412        54.79713        -3.52998
H         48.32548        54.64909        -3.99485
O         41.93365        57.09150        -2.17704
H         41.15332        56.83639        -2.71320
O         24.27669        38.46067        -0.45849
H         23.38269        38.81404        -0.65498
H         22.82052        23.50161        -0.37238
H         20.70990        24.74779        -0.04552
H         20.72274        27.18412         0.31301
H         20.74913        29.05204         0.73080
H         20.67631        31.46228         0.64449
H         20.82371        33.42171         1.23057
H         20.97991        35.77104         1.83731
H         20.91717        37.69122         1.50966
H         20.97075        40.10927         1.72088
H         21.05215        42.10912         1.60522
H         21.11873        44.47182         2.03819
H         21.09109        46.29208         2.72562
H         23.14089        49.97250         1.86861
H         21.08717        48.72855         2.34188
H         24.51095        22.59819        -0.77398
H         24.80631        50.93304         1.64642
H         26.61617        21.42999        -1.01850
H         26.82385        52.08820         1.03205
H         30.40813        19.39146        -1.69513
H         28.28216        20.57515        -1.48989
H         30.42345        54.17714        -0.23704
H         28.36696        53.00478         0.26598
H         32.10192        18.66982        -2.37416
H         32.08014        55.13121        -0.26149
H         34.19822        17.56128        -2.79893
H         34.07651        56.32618        -0.86277
H         37.75442        14.95383        -1.51755
H         35.86441        16.21471        -2.28857
H         37.89200        58.38648        -0.25093
H         35.77644        57.22156        -0.60223
H         39.36554        13.93371        -1.00084
H         39.59473        59.19536         0.33578
H         43.57352        13.87056        -0.13057
H         41.44376        12.69754        -0.52269
H         43.88766        59.08063         0.52934
H         41.76835        60.35317         0.54522
H         45.16252        14.85286         0.50056
H         45.62198        57.83780         0.54917
H         47.29870        15.98509         0.51210
H         47.58738        56.80873        -0.49000
H         51.03262        18.21289         0.97137
H         48.99777        16.98172         0.44720
H         51.03489        55.06302        -1.16745
H         49.07056        56.29033        -1.85308
H         52.59623        19.23301         1.52599
H         52.67411        54.07878        -1.04863
H         54.65142        20.49287         1.83005
H         54.65383        52.89232        -0.39566
H         58.32971        22.75343         2.19740
H         56.24007        21.51039         2.09857
H         58.03026        50.90889         1.42539
H         56.13044        52.02907         0.39215
H         59.99101        23.55892         1.59453
H         59.67623        50.02705         1.87619
H         62.13622        24.78065         1.47189
H         62.17530        27.24105         1.28222
H         62.15779        29.14933         1.48281
H         62.22669        31.54688         0.99508
H         62.25961        33.56368        -0.12324
H         62.19391        35.91074         0.19533
H         62.11708        37.89485         1.69262
H         61.85926        40.23891         2.33901
H         61.82639        42.15799         1.89174
H         61.70380        44.57285         2.17878
H         61.61009        46.33764         2.82978
H         61.65439        48.76509         2.57842
