         430
 CSIRO Nanostructure Databank - Neutral Graphene Oxide Data Set
C         27.90348        27.48100         0.80382
C         27.85595        28.93805         1.08471
C         26.64720        29.68120         0.67622
C         27.89354        31.80771         0.45598
C         26.69879        30.99347         0.34645
C         27.89971        33.14212         0.09545
C         26.73239        33.83117        -0.40219
C         27.93145        35.96782        -0.67161
C         26.72830        35.16222        -0.69791
C         27.94625        37.31460        -1.12931
C         26.76141        38.02846        -1.56692
C         28.08822        40.04859        -2.26497
C         26.80048        39.29879        -2.03596
C         28.04227        41.55075        -2.00937
C         26.81985        42.22230        -1.85669
C         27.99556        44.28368        -1.33447
C         26.79384        43.57003        -1.52565
C         27.93974        45.59893        -0.75795
C         30.40181        27.49956         0.60071
C         29.06239        26.81749         0.70867
C         30.41136        28.98193         0.96970
C         29.13877        29.69990         1.22231
C         30.41212        31.84251         0.69974
C         29.11172        31.23661         1.18453
C         30.41269        33.20261         0.34103
C         29.11383        33.99093         0.42302
C         30.36275        36.01013        -0.40888
C         29.14288        35.32393        -0.30001
C         30.37025        37.38043        -0.72095
C         29.17601        38.04465        -1.11023
C         30.46486        40.12072        -1.51746
C         29.23900        39.40453        -1.52975
C         30.49258        41.48170        -1.95383
C         29.26463        42.27125        -1.94950
C         30.44273        44.46553        -1.32321
C         29.25398        43.67328        -1.61167
C         30.36638        45.68597        -0.56830
C         29.06472        46.24190        -0.32731
C         32.74437        24.63852         0.83696
C         31.60113        25.31203         1.13134
C         32.85301        27.48766         0.89511
C         31.56748        26.80250         1.32647
C         32.86226        28.88269         0.77699
C         31.60803        29.65071         0.91279
C         32.84471        31.77710         0.50173
C         31.62680        31.11231         0.75987
C         32.85569        33.14566         0.14640
C         31.62855        33.84402         0.04903
C         32.90855        35.98490        -0.18091
C         31.65115        35.23287        -0.52546
C         32.88168        37.45560        -0.15964
C         31.59772        38.17246        -0.51592
C         32.91815        40.22110        -1.11075
C         31.68037        39.53008        -1.06970
C         32.97513        41.51815        -1.69980
C         31.76622        42.02439        -2.19249
C         32.94392        44.53339        -1.17855
C         31.72512        44.09086        -1.76248
C         32.84692        45.77320        -0.45829
C         31.56607        46.35698        -0.19706
C         32.63580        48.35271         0.77024
C         31.52360        47.63330         0.49262
C         35.32354        23.14377         0.74228
C         35.19993        24.52523         0.15411
C         33.99274        25.30876         0.62175
C         35.26128        27.39889         0.30655
C         34.03781        26.71315         0.64662
C         35.24837        28.82401         0.23302
C         34.08843        29.56298         0.50658
C         35.25751        31.70673        -0.10679
C         34.16107        31.06479         0.71958
C         35.30255        33.14000        -0.26824
C         34.12040        33.85090        -0.10781
C         35.36778        36.03925        -0.15238
C         34.10607        35.30739        -0.17231
C         35.36407        37.46852        -0.17642
C         34.14375        38.18745        -0.33936
C         35.37340        40.25176        -0.79203
C         34.13308        39.54183        -0.69708
C         35.44699        41.56158        -1.35439
C         34.25335        42.33493        -1.93306
C         35.35786        44.59170        -1.03708
C         34.19543        43.85162        -1.38903
C         35.27587        45.83894        -0.32391
C         34.04618        46.44070        -0.06382
C         35.22156        48.62550         0.70360
C         33.96554        47.86364         0.37117
C         35.24750        49.92176         1.41692
C         37.75460        23.15274         0.39423
C         36.50475        22.49317         0.74127
C         37.73594        24.59053         0.26529
C         36.50216        25.29246         0.24608
C         37.74789        27.40164        -0.30398
C         36.47869        26.69576         0.13762
C         37.73126        28.90701        -0.18587
C         36.46730        29.51318        -0.16351
C         38.08730        31.87579        -0.64500
C         36.25147        30.86923        -0.56825
C         37.88560        33.20945        -0.29647
C         36.58779        33.89654        -0.67984
C         37.80924        36.05216        -0.07011
C         36.58380        35.34330        -0.21826
C         37.82755        37.47776         0.00416
C         36.58891        38.19710        -0.13777
C         37.78317        40.38187        -0.19990
C         36.56374        39.59437        -0.37199
C         37.88957        41.66740        -0.86670
C         36.73209        42.07642        -1.55595
C         37.88319        44.64638        -0.82261
C         36.70226        44.18681        -1.38582
C         37.84666        45.90818        -0.12693
C         36.52019        46.44532         0.23541
C         37.76563        48.59881         0.91556
C         36.49668        47.84258         0.79845
C         37.71528        49.94744         1.32264
C         36.43106        50.53307         1.66993
C         40.16619        20.32893         0.00705
C         39.03100        20.99428         0.30812
C         40.20139        23.16947         0.14108
C         38.95552        22.44553         0.25514
C         40.20911        24.58630         0.33467
C         38.97366        25.31575         0.29780
C         40.17627        27.47070         0.41077
C         38.99635        26.73291         0.20331
C         40.19346        28.88528         0.30941
C         38.99371        29.62006        -0.08241
C         40.18326        31.74848         0.64228
C         39.08686        31.03251        -0.11501
C         40.26503        33.21781         0.30906
C         39.05895        33.92835         0.09768
C         40.29550        36.03603         0.03778
C         39.05777        35.34871         0.02962
C         40.30663        37.46163        -0.05880
C         39.07685        38.15909         0.01612
C         40.35582        40.30114        -0.34503
C         39.13078        39.61355         0.05113
C         40.32621        41.72498        -0.54134
C         39.11014        42.42686        -0.77919
C         40.31710        44.55785        -0.52501
C         39.12953        43.87442        -0.82388
C         40.30180        46.07080        -0.48739
C         39.01570        46.61534         0.10518
C         40.22784        48.67055         0.80155
C         38.99735        47.95571         0.62222
C         40.18710        50.03281         1.20859
C         38.93777        50.69881         1.42639
C         40.13829        52.80123         1.79056
C         38.94810        52.08605         1.72296
C         42.67717        20.33401        -0.19670
C         41.38924        21.05060        -0.48864
C         42.65468        23.17631         0.09889
C         41.41704        22.48922        -0.03617
C         42.65762        24.58831         0.36461
C         41.43356        25.27549         0.45923
C         42.70345        27.41076         0.75396
C         41.38477        26.70649         0.93123
C         42.65702        28.87352         0.89156
C         41.42053        29.61316         0.56084
C         42.72590        31.74540         0.51943
C         41.48550        31.00748         0.55383
C         42.73720        33.15991         0.34754
C         41.49831        33.89946         0.28197
C         42.76519        36.01929         0.01002
C         41.52166        35.31307         0.09961
C         42.78069        37.42572        -0.16537
C         41.54689        38.16184        -0.20215
C         42.80902        40.26265        -0.83695
C         41.54299        39.56405        -0.42391
C         42.80433        41.73286        -0.48947
C         41.57107        42.43783        -0.49719
C         42.78642        44.56388        -0.23763
C         41.55152        43.85830        -0.40616
C         42.75545        45.98941         0.05987
C         41.54415        46.68057         0.11634
C         42.70494        48.70165         0.96409
C         41.48968        48.01772         0.60941
C         42.65674        50.06434         1.35238
C         41.41549        50.74521         1.40820
C         42.62369        52.89419         1.65538
C         41.37848        52.15533         1.65143
C         43.83765        21.01301        -0.03057
C         45.12396        23.15900         0.21207
C         43.88476        22.45703         0.05223
C         45.10887        24.56768         0.52114
C         43.91485        25.27538         0.55969
C         45.17928        27.45685         0.69067
C         43.90276        26.73144         0.72166
C         45.20317        28.83532         0.66663
C         43.97517        29.61902         0.84183
C         45.17073        31.71567         0.21869
C         43.96965        31.05177         0.49179
C         45.19691        33.12870         0.11933
C         43.97027        33.85584         0.19624
C         45.23471        35.96978         0.03475
C         43.99242        35.28266         0.06756
C         45.25298        37.40214        -0.07781
C         44.03733        38.12596        -0.22841
C         45.26843        40.25179        -0.34365
C         44.05980        39.54055        -0.40286
C         45.28458        41.70208        -0.35365
C         44.01828        42.43342        -0.38769
C         45.27850        44.63551        -0.34560
C         43.99688        43.85166        -0.25907
C         45.19343        45.95096         0.38705
C         43.98595        46.65274         0.44443
C         45.19622        48.74630         1.08472
C         43.95865        48.02323         0.86885
C         45.18861        50.11768         1.44739
C         43.89002        50.76664         1.87489
C         43.81746        52.25888         1.66199
C         47.58956        23.21515         0.13191
C         46.36243        22.52040         0.00889
C         47.64847        24.51319         0.57320
C         46.38767        25.24736         0.95953
C         47.63190        27.38309         0.36080
C         46.43050        26.72228         0.60007
C         47.69815        28.80949         0.29950
C         46.49089        29.61542         0.71281
C         47.70119        31.68764         0.01838
C         46.40844        30.91008        -0.09685
C         47.70342        33.08647         0.02940
C         46.44938        33.83459         0.06061
C         47.73635        35.96071         0.39972
C         46.45491        35.22962         0.09922
C         47.73593        37.40385        -0.02912
C         46.50117        38.10662        -0.12091
C         47.73809        40.22799        -0.21352
C         46.50210        39.52632        -0.23221
C         47.74011        41.65652        -0.11864
C         46.49024        42.38277        -0.18238
C         47.68960        44.46988         0.24839
C         46.52395        43.83105        -0.05031
C         47.72298        45.89139         0.66152
C         46.42613        46.61748         0.80748
C         47.67759        48.75928         1.06441
C         46.44229        48.07962         0.94520
C         47.62935        50.13613         1.36306
C         46.41228        50.78219         1.58820
C         50.19075        24.51604         0.43172
C         48.93784        25.27250         0.78805
C         50.15889        27.35990         0.05583
C         48.86423        26.58510        -0.01658
C         50.15063        28.77315         0.00330
C         48.89629        29.49647         0.05897
C         50.15365        31.63450        -0.11901
C         48.91710        30.94624        -0.00280
C         50.17256        33.06327        -0.16207
C         48.95207        33.79525        -0.03612
C         50.19505        35.91256        -0.14360
C         48.98280        35.21413        -0.00185
C         50.21660        37.36086        -0.14500
C         48.95864        38.08283        -0.12702
C         50.20066        40.22079        -0.23166
C         48.96723        39.51299        -0.20586
C         50.19154        41.63839        -0.12150
C         48.96024        42.32659         0.03239
C         50.13277        44.54178        -0.16964
C         48.98641        43.75788         0.49265
C         50.19128        45.98394         0.30011
C         48.98045        46.66548         0.56293
C         50.19438        48.72505         0.89627
C         48.95583        48.05228         0.85277
C         51.30232        25.16124         0.02801
C         52.60870        27.28447        -0.15421
C         51.37585        26.61906        -0.03686
C         52.66638        28.76007         0.15991
C         51.37410        29.49636        -0.05820
C         52.62792        31.61583        -0.34220
C         51.39021        30.90132        -0.16437
C         52.63322        33.02829        -0.42301
C         51.40817        33.76307        -0.29425
C         52.65318        35.89556        -0.44526
C         51.42350        35.18946        -0.30739
C         52.67601        37.32971        -0.37812
C         51.42952        38.05341        -0.24077
C         52.64770        40.21725        -0.31844
C         51.44673        39.50509        -0.26661
C         52.64946        41.64955        -0.32325
C         51.42738        42.36817        -0.16349
C         52.64774        44.47952        -0.04556
C         51.44226        43.79249        -0.06647
C         52.73749        45.92587         0.39381
C         51.41411        46.66981         0.39540
C         51.39146        48.04024         0.71085
C         55.01486        27.29531        -0.60482
C         53.84644        26.60919        -0.38592
C         55.03857        28.73815        -0.67135
C         53.86266        29.46855        -0.41649
C         55.06430        31.56966        -0.83588
C         53.85754        30.88306        -0.52308
C         55.07376        33.02020        -0.85268
C         53.86504        33.73831        -0.63408
C         55.09618        35.87448        -0.82453
C         53.87344        35.16955        -0.63122
C         55.10622        37.32715        -0.78085
C         53.89281        38.02551        -0.49361
C         55.12026        40.20913        -0.84015
C         53.96551        39.50197        -0.16927
C         55.05894        41.69632        -1.10949
C         53.85569        42.37656        -0.50224
C         55.08605        44.51835        -0.49939
C         53.86634        43.77593        -0.32388
C         55.02784        45.94876        -0.57041
C         53.88345        46.63542        -0.28483
C         56.22086        29.43060        -1.03204
C         56.23419        30.81141        -1.09268
C         56.26716        33.74895        -1.05952
C         56.27838        35.13319        -1.03987
C         56.26183        38.06596        -1.08169
C         56.22454        39.48121        -1.19732
C         56.33491        42.44484        -0.81623
C         56.31631        43.79727        -0.64315
O         34.65627        48.72736        -0.65001
O         32.04462        38.05330         0.89894
O         37.14874        31.33151        -1.54655
O         36.39576        46.69030         1.69813
O         36.83795        43.20933        -2.38909
O         28.40895        29.22811         2.42829
O         43.29923        29.35619         2.12945
O         31.81155        43.24931        -2.87406
O         38.39113        40.27529         1.11619
O         47.10558        45.98025         2.01564
O         28.96048        34.36333         1.83066
H         28.93438        33.51867         2.34950
O         28.39402        39.89996        -3.70101
H         28.49016        38.94092        -3.88192
O         30.73518        27.42941        -0.81857
H         29.99125        27.81057        -1.32937
O         42.82230        40.21097        -2.31574
H         43.63673        40.66971        -2.61409
O         46.28392        30.50481        -1.49605
H         46.25114        31.31780        -2.04268
O         34.97501        24.31939        -1.29404
H         35.77584        23.87462        -1.64645
O         31.75230        35.03608        -1.99644
H         32.56885        34.51646        -2.16407
O         54.86988        41.80667        -2.57641
H         54.84823        42.76394        -2.79052
O         53.11257        45.87586         1.81917
H         53.92012        45.32278         1.88617
O         31.37724        27.04664         2.74824
H         32.15668        26.69284         3.22456
O         52.88109        28.80617         1.63689
H         53.73626        28.35682         1.81034
O         49.02565        25.64961         2.20076
H         49.45779        24.91408         2.68327
O         46.33661        25.24407         2.43468
H         47.23046        25.54983         2.73131
O         48.68833        26.17618        -1.40622
H         48.63173        26.98770        -1.95303
O         40.31268        46.51944        -1.89300
H         39.54352        46.10190        -2.33678
O         28.98635        31.69387         2.56880
H         28.53116        30.96159         3.05504
O         36.54258        33.96068        -2.14417
H         36.65927        33.03431        -2.46102
O         41.27112        21.07903        -1.96368
H         42.04934        21.57045        -2.30287
O         49.21721        43.73387         1.92864
H         48.63720        44.40408         2.35235
O         37.78851        27.18497        -1.77501
H         36.96134        27.56076        -2.14646
O         39.78101        31.68501         2.06489
H         40.57414        31.88990         2.60471
O         49.80395        44.58196        -1.59014
H         50.53795        45.02775        -2.06196
O         47.78312        36.01021         1.88015
H         48.59821        36.49657         2.12914
O         34.42049        42.41719        -3.36168
H         35.28293        42.86201        -3.52862
O         43.85768        50.58091         3.34327
H         43.00210        50.94200         3.65999
O         41.17483        26.63821         2.38859
H         42.00507        26.30651         2.79231
O         34.49239        31.22839         2.13816
H         34.46896        32.18818         2.33774
O         54.26626        39.56269         1.28515
H         55.09168        39.05117         1.42672
O         46.68132        30.01580         2.10055
H         46.59062        29.21929         2.66431
O         45.41343        45.01718        -1.77224
H         44.56822        45.43620        -2.04390
H         26.94452        26.94084         0.75967
H         25.70848        29.11937         0.56004
H         25.77710        31.46790        -0.01853
H         25.79293        33.27412        -0.52435
H         25.78731        35.62057        -1.03254
H         25.78669        37.52277        -1.50421
H         25.86340        39.75361        -2.38932
H         25.87003        41.67936        -1.94945
H         25.83442        44.07522        -1.34381
H         26.95030        46.04778        -0.58593
H         29.04344        25.73235         0.52605
H         28.96355        47.20867         0.18246
H         32.70324        23.54445         0.73582
H         30.67766        24.74590         1.32135
H         32.55238        49.32979         1.26610
H         30.54925        48.04118         0.79327
H         34.41555        22.60797         1.05373
H         34.30136        50.42687         1.65807
H         36.54032        21.44948         1.08548
H         36.41942        51.51908         2.15518
H         40.19094        19.22925         0.04231
H         38.13721        20.42534         0.60223
H         40.11368        53.88596         1.96941
H         38.00148        52.62502         1.86086
H         42.68053        19.23419        -0.23209
H         42.57516        53.99315         1.61634
H         44.76980        20.44642         0.10792
H         44.74530        52.84833         1.65841
H         48.51022        22.67236        -0.12647
H         46.39601        21.46774        -0.30078
H         48.55619        50.71448         1.47481
H         46.43283        51.83655         1.89648
H         50.21930        23.42460         0.56886
H         50.23473        49.79938         1.12101
H         52.20831        24.57533        -0.18183
H         52.33869        48.58597         0.82365
H         55.94656        26.74635        -0.80298
H         53.86577        25.51164        -0.44103
H         55.92522        46.48946        -0.90929
H         53.86821        47.73182        -0.36816
H         57.13540        28.85909        -1.24611
H         57.17329        31.31731        -1.35291
H         57.21557        33.22153        -1.22560
H         57.23592        35.64963        -1.18808
H         57.19429        37.55443        -1.35264
H         57.10169        39.98415        -1.63014
H         57.29712        41.92087        -0.90938
H         57.26166        44.35864        -0.58332
