         638
 CSIRO Nanostructure Databank - Neutral Graphene Oxide Data Set
C         23.46405        69.62198         3.09971
C         23.52045        71.01002         3.43240
C         22.41111        71.68207         4.01581
C         23.69853        73.73781         4.16315
C         22.51038        73.02499         4.36563
C         25.72420        65.41721         1.74880
C         25.74344        66.80822         2.02846
C         24.58401        67.50739         2.44270
C         25.84143        69.61345         2.45652
C         24.60689        68.90653         2.65382
C         25.85257        71.12487         2.45922
C         24.71635        71.74629         3.22074
C         26.07348        73.82036         3.37892
C         24.82240        73.10426         3.58853
C         27.77934        61.28750        -0.05884
C         27.93258        62.71055         0.42162
C         26.83108        63.36236         0.93145
C         28.11084        65.45618         1.14765
C         26.87482        64.74801         1.29825
C         28.15074        66.84923         1.44051
C         26.97858        67.52602         1.86676
C         28.24670        69.68418         1.89433
C         27.00702        68.93676         2.11236
C         28.31666        71.02954         2.16438
C         27.19262        71.65965         2.94665
C         28.50058        73.82988         2.87549
C         27.22793        73.17119         3.01043
C         30.30389        57.06606        -0.39019
C         30.28332        58.43600        -0.57060
C         29.10254        59.19428        -0.36521
C         30.29069        61.32092        -0.50066
C         29.09006        60.58694        -0.33059
C         30.35063        62.71364        -0.21304
C         29.18567        63.39718         0.27726
C         30.51523        65.44978         0.50759
C         29.27114        64.76677         0.64559
C         30.65984        66.79032         1.17495
C         29.38327        67.57883         1.29564
C         30.68679        69.67552         1.41002
C         29.43239        68.95303         1.48014
C         30.73890        71.06945         1.58255
C         29.46294        71.86465         1.66214
C         30.87683        73.86914         2.20150
C         29.62071        73.20071         2.35925
C         32.84250        52.82775        -0.55020
C         32.79757        54.24818        -0.46536
C         31.57116        54.94977        -0.46781
C         32.78735        57.07342        -0.33055
C         31.55081        56.34724        -0.43020
C         32.74809        58.58182        -0.21286
C         31.57181        59.08184        -1.06847
C         32.77283        61.35666        -0.92850
C         31.45471        60.65488        -1.18087
C         32.76000        62.75370        -0.82987
C         31.56957        63.44050        -0.43306
C         32.88636        65.56461        -0.22077
C         31.63410        64.82712        -0.06355
C         32.94606        66.95707         0.13125
C         31.81587        67.60398         0.67408
C         33.10869        69.68304         0.91804
C         31.87198        68.97526         1.00542
C         33.15640        70.97016         1.53795
C         31.97852        71.74826         1.63291
C         33.16031        73.95995         1.27308
C         32.01264        73.21381         1.72251
C         35.29053        48.61869         0.02239
C         35.30223        49.96604        -0.18235
C         34.04066        50.64215        -0.67238
C         35.27614        52.86524        -0.44466
C         34.04623        52.14539        -0.52353
C         35.25948        54.27442        -0.37516
C         34.02210        54.97657        -0.35141
C         35.24756        57.16245         0.14038
C         33.99315        56.40046        -0.23474
C         35.28904        58.56360        -0.46422
C         34.04023        59.25912        -0.61970
C         35.30201        61.38052        -0.64944
C         34.00147        60.63356        -0.86920
C         35.28789        62.82855        -1.06859
C         33.96966        63.53810        -1.28769
C         35.23282        65.66603        -0.92139
C         34.01882        64.95002        -0.76478
C         35.27878        67.01919        -0.60444
C         34.13861        67.70492        -0.11538
C         35.24946        69.92370        -0.37639
C         34.20473        69.11829         0.18161
C         35.24732        71.34741        -0.44321
C         34.00582        72.19349        -0.34797
C         35.38005        74.16303         0.17637
C         34.15598        73.48066         0.41389
C         37.71888        44.26922         0.18822
C         37.76410        45.77261         0.34345
C         36.57434        46.43687         0.30775
C         37.80004        48.65734         0.52757
C         36.48565        47.89195         0.47593
C         37.77475        50.07115         0.10878
C         36.53912        50.72922        -0.11650
C         37.75701        52.83086        -0.40988
C         36.53592        52.13082        -0.35560
C         37.73950        54.29383        -0.77851
C         36.50338        55.03860        -0.33777
C         37.80567        57.15842         0.05343
C         36.51613        56.38647        -0.13665
C         37.77059        58.56287        -0.52763
C         36.50043        59.20249        -0.72078
C         37.76844        61.38729        -1.07255
C         36.47362        60.62106        -1.26133
C         37.74987        62.78777        -1.15515
C         36.46564        63.49482        -1.21554
C         37.75031        65.67676        -1.23674
C         36.43872        64.97575        -1.52932
C         37.77848        67.06190        -1.04105
C         36.56834        67.77224        -0.48547
C         37.70398        69.96643        -0.89003
C         36.40717        69.19159        -1.03840
C         37.63124        71.42653        -1.19014
C         36.41065        72.11037        -0.71478
C         37.74041        74.21143        -0.60450
C         36.47010        73.51476        -0.44365
C         40.23096        40.07119         0.99029
C         40.24706        41.46971         0.70527
C         39.03804        42.19752         0.56386
C         40.25675        44.31011         0.44437
C         39.03769        43.57907         0.41627
C         40.25924        45.75745         0.37955
C         39.03944        46.47516         0.39411
C         40.27286        48.60104         0.26206
C         39.06711        47.90298         0.39496
C         40.29541        50.10777         0.39749
C         38.99027        50.76497        -0.01144
C         40.27828        52.88885        -0.11853
C         38.97857        52.14353        -0.28441
C         40.23638        54.31316        -0.59334
C         39.02513        55.01634        -0.49460
C         40.25909        57.10064        -0.53731
C         39.04397        56.41192        -0.38705
C         40.26106        58.58017        -0.26121
C         38.96629        59.25677        -0.66544
C         40.22209        61.39245        -0.95452
C         38.99283        60.68348        -0.93674
C         40.21888        62.81474        -1.10518
C         38.98019        63.51346        -1.19543
C         40.20711        65.66871        -1.26241
C         38.97549        64.95426        -1.27634
C         40.20879        67.09658        -1.31405
C         38.99845        67.77962        -1.14703
C         40.20467        70.02918        -1.40272
C         39.00401        69.25822        -1.03930
C         40.20345        71.41354        -1.33177
C         38.92024        72.17165        -1.33057
C         40.19273        74.38075        -1.17040
C         38.90326        73.60868        -0.98784
C         42.67452        35.95850         2.21420
C         42.68211        37.29064         1.72641
C         41.45750        37.96381         1.45579
C         42.67358        39.98038         0.69313
C         41.41128        39.31952         1.08916
C         42.78216        41.48775         0.82632
C         41.47170        42.19948         0.63268
C         42.80223        44.31224         0.67069
C         41.47723        43.59214         0.55106
C         42.74556        45.77292         0.27798
C         41.50370        46.46462         0.27432
C         42.73317        48.58297        -0.08294
C         41.49971        47.88909         0.14057
C         42.72076        50.00601        -0.32305
C         41.51733        50.73790        -0.23998
C         42.68165        52.79184        -0.90360
C         41.50582        52.11618        -0.53422
C         42.60121        54.22084        -1.41410
C         41.42223        55.00253        -0.89044
C         42.64534        57.16162        -1.40471
C         41.42861        56.40620        -0.91385
C         42.80427        58.51046        -0.66353
C         41.50470        59.29212        -0.72203
C         42.76038        61.38115        -0.91155
C         41.47244        60.64540        -0.88693
C         42.74592        62.86799        -0.98012
C         41.44637        63.57081        -1.10455
C         42.71936        65.73742        -0.94645
C         41.44339        64.95341        -1.17354
C         42.64464        67.14442        -1.48766
C         41.46157        67.81875        -1.51093
C         42.67619        70.02393        -1.28442
C         41.45495        69.30478        -1.83696
C         42.65983        71.36888        -1.04135
C         41.43714        72.14148        -1.19675
C         42.65509        74.20924        -0.73284
C         41.44897        73.54339        -0.99124
C         45.11785        33.33008         3.32404
C         43.88996        33.99095         3.09281
C         45.05780        36.16411         2.82160
C         43.84466        35.33936         2.69353
C         45.13025        37.44387         2.10308
C         43.94273        37.96709         1.56923
C         45.22248        40.08978         0.94025
C         43.98242        39.27303         0.90696
C         45.22910        41.43846         0.52737
C         43.94936        42.05396        -0.04301
C         45.23436        44.31305         0.12680
C         43.90976        43.62024        -0.15321
C         45.22136        45.72791         0.06631
C         43.95702        46.45108         0.06819
C         45.19560        48.57902        -0.31073
C         43.95622        47.87219        -0.12568
C         45.18239        49.98804        -0.55472
C         43.93838        50.69156        -0.60314
C         45.15661        52.76699        -1.15087
C         43.91986        52.09077        -0.89188
C         45.12258        54.18237        -1.55028
C         43.89937        54.98337        -1.32522
C         45.19289        57.07823        -1.47342
C         43.93173        56.34966        -1.35239
C         45.19784        58.50236        -1.51927
C         43.99223        59.26303        -1.23553
C         45.10551        61.39230        -1.87989
C         43.96552        60.62902        -1.32961
C         45.16084        62.87152        -1.70086
C         43.97439        63.59183        -1.39407
C         45.17676        65.70651        -1.55811
C         43.96388        64.99070        -1.38886
C         45.18878        67.13416        -1.52287
C         43.91671        67.91650        -1.74253
C         45.18036        69.95655        -0.95900
C         43.87592        69.19738        -0.90432
C         45.17347        71.35307        -0.69749
C         43.85915        72.02597        -0.37970
C         45.09944        74.21001        -0.54595
C         43.89042        73.52606        -0.58135
C         46.33691        33.96814         3.22961
C         47.62530        36.11774         2.72058
C         46.41815        35.41750         3.11747
C         47.60543        37.47226         2.33777
C         46.36881        38.13485         1.97102
C         47.65000        40.16042         1.29108
C         46.41332        39.45828         1.40809
C         47.65196        41.49712         0.83413
C         46.43915        42.17444         0.53877
C         47.67317        44.34330         0.26585
C         46.44340        43.61011         0.27934
C         47.66487        45.72955        -0.00124
C         46.44806        46.44202        -0.04757
C         47.65133        48.60727        -0.30153
C         46.43665        47.88406        -0.23613
C         47.64405        50.02059        -0.51903
C         46.40514        50.70255        -0.71480
C         47.64970        52.82232        -1.16075
C         46.39315        52.10465        -1.02996
C         47.69120        54.20004        -1.43576
C         46.43428        54.91875        -1.70386
C         47.65545        57.06990        -1.68890
C         46.41698        56.38505        -1.58806
C         47.63861        58.47431        -1.85052
C         46.41754        59.17315        -1.80276
C         47.68346        61.36268        -2.17721
C         46.38319        60.61643        -2.13046
C         47.65395        62.87741        -2.05451
C         46.37462        63.57216        -1.81845
C         47.65016        65.69557        -1.63925
C         46.40887        64.98822        -1.65944
C         47.66032        67.13654        -1.48041
C         46.38581        67.84431        -1.42877
C         47.66241        69.90932        -0.74087
C         46.36753        69.25570        -1.15166
C         47.63061        71.41534        -0.78426
C         46.37414        72.08785        -0.67006
C         47.57450        74.22279        -0.49778
C         46.36184        73.53213        -0.55001
C         48.81988        38.19035         2.23228
C         50.07252        40.23996         1.83650
C         48.87379        39.52434         1.76244
C         50.22205        41.53597         1.19792
C         48.92528        42.20921         0.64199
C         50.12055        44.38626         0.66915
C         48.92947        43.66706         0.50455
C         50.16306        45.78950         0.32242
C         48.96370        46.39806        -0.38521
C         50.10030        48.59865        -0.21537
C         48.92716        47.90802        -0.24095
C         50.11942        50.09779        -0.05751
C         48.86583        50.75733        -0.56455
C         50.13435        52.82538        -1.02895
C         48.88392        52.12120        -0.90217
C         50.16964        54.20971        -1.35229
C         48.91954        54.93470        -1.50628
C         50.14508        57.07615        -1.81206
C         48.90983        56.33715        -1.71654
C         50.17349        58.45834        -1.89378
C         48.90821        59.18382        -2.27264
C         50.13251        61.32072        -1.55611
C         48.90011        60.62790        -1.87781
C         50.13565        62.84817        -1.49770
C         48.89943        63.59727        -1.75591
C         50.16949        65.75494        -1.83865
C         48.88016        64.98202        -1.69667
C         50.11738        67.07001        -1.07463
C         48.85471        67.82821        -1.37885
C         50.14175        70.00479        -1.03616
C         48.85943        69.33164        -1.48077
C         50.10525        71.39749        -0.79902
C         48.83482        72.10870        -0.73438
C         50.04391        74.22932        -0.41619
C         48.82994        73.54586        -0.55752
C         51.31368        42.43328         1.56763
C         52.48173        44.60499         1.65680
C         51.29731        43.76008         1.24048
C         52.53280        45.96391         1.00232
C         51.33440        46.51210         0.41172
C         52.60231        48.67708         0.07884
C         51.40600        47.84726        -0.29383
C         52.62085        50.04286        -0.29599
C         51.38472        50.74377        -0.55986
C         52.62372        52.76397        -1.27296
C         51.36400        52.08021        -0.93245
C         52.64924        54.23192        -1.37851
C         51.40631        54.90084        -1.48512
C         52.67400        57.07062        -1.66217
C         51.42288        56.30784        -2.01646
C         52.65651        58.48936        -1.66210
C         51.41624        59.20755        -1.78592
C         52.65199        61.35709        -1.59105
C         51.42672        60.61211        -1.67423
C         52.65474        62.82741        -1.55052
C         51.43498        63.55853        -1.56492
C         52.62148        65.68682        -1.34153
C         51.42255        64.96263        -1.53008
C         52.58301        67.14423        -1.23047
C         51.40322        67.84975        -1.23412
C         52.57798        70.02699        -0.94143
C         51.37708        69.30582        -1.07265
C         52.56630        71.42840        -0.69190
C         51.31420        72.11915        -0.61786
C         52.50979        74.22893        -0.22260
C         51.29753        73.54542        -0.41941
C         53.69374        46.69067         1.05790
C         54.95074        48.80994         0.74765
C         53.76666        48.06616         0.60593
C         55.02598        50.14743         0.27730
C         53.85214        50.73618        -0.27932
C         55.12446        52.87490        -0.67543
C         53.93592        52.05731        -0.88859
C         55.12568        54.23735        -1.07024
C         53.88826        54.91897        -1.41799
C         55.11715        57.09826        -1.44375
C         53.88829        56.36944        -1.53804
C         55.10616        58.49070        -1.37831
C         53.87443        59.21309        -1.48708
C         55.15829        61.35662        -1.65701
C         53.86574        60.64275        -1.52992
C         55.16820        62.87864        -1.70218
C         53.86859        63.57451        -1.51728
C         55.12397        65.73928        -1.38437
C         53.84725        64.97412        -1.33281
C         55.13208        67.16945        -0.99584
C         53.81723        67.87255        -0.76868
C         55.08445        69.98286        -0.61921
C         53.88014        69.31822        -1.22974
C         55.12015        71.48335        -0.54609
C         53.77013        72.14238        -0.46655
C         54.97293        74.19003         0.16077
C         53.75097        73.53479        -0.18780
C         56.22684        50.90249         0.32065
C         57.49370        52.99133        -0.08779
C         56.28845        52.25205        -0.12703
C         57.54718        54.31072        -0.58525
C         56.35191        54.94379        -1.02834
C         57.68111        57.07707        -1.43538
C         56.39086        56.29843        -1.67932
C         57.64375        58.55947        -1.24746
C         56.33703        59.22812        -0.90239
C         57.57809        61.39293        -1.03646
C         56.39944        60.69651        -1.23970
C         57.60372        62.84821        -1.10238
C         56.44210        63.54916        -1.36284
C         57.74123        65.80273        -1.21605
C         56.44118        65.02376        -1.45520
C         57.50901        67.02772        -0.28308
C         56.27852        67.83013        -0.65807
C         57.44278        69.97401         0.03447
C         56.23810        69.27263        -0.39709
C         57.35240        71.24993         0.54795
C         55.99567        71.93776         0.63272
C         57.23899        74.04138         1.11566
C         56.10315        73.45487         0.60076
C         58.79178        55.02351        -0.58519
C         60.05741        57.11421        -0.67894
C         58.88783        56.37261        -0.93588
C         60.07430        58.53892        -0.63545
C         58.85622        59.28087        -0.80551
C         60.02052        61.39468        -0.42673
C         58.81781        60.67315        -0.72189
C         60.02732        62.80971        -0.35385
C         58.82483        63.57197        -0.69803
C         59.95889        65.67540         0.08290
C         58.84129        64.94235        -0.62637
C         60.08422        67.14493        -0.38643
C         58.76741        67.83465        -0.13872
C         59.88970        69.90775         0.68639
C         58.79039        69.32907        -0.20546
C         59.72940        71.25182         1.19724
C         58.50700        71.89746         1.11810
C         59.51451        73.86280         2.21301
C         58.21786        73.20561         1.89087
C         61.24860        59.24527        -0.32788
C         62.43443        61.34833         0.08400
C         61.24400        60.65741        -0.21936
C         62.44842        62.75216         0.20765
C         61.23223        63.48919        -0.02753
C         62.40314        65.55832         0.55741
C         61.26057        64.91214         0.11478
C         62.42264        67.02929         0.75841
C         61.25728        67.85636         0.31960
C         62.09553        69.72244         1.80800
C         61.05156        69.19608         0.92825
C         62.01291        71.02556         2.25435
C         60.95200        71.95239         1.73182
C         61.80487        73.74778         3.25212
C         60.53992        73.02568         2.86800
C         63.61948        63.43522         0.61788
C         64.71458        65.49796         1.42189
C         63.60696        64.82340         0.85294
C         64.62614        66.82817         1.92525
C         63.39482        67.58994         1.72685
C         64.27932        69.45854         3.06457
C         63.22655        68.87221         2.20577
C         64.29386        70.91300         3.28538
C         62.93762        71.55127         3.34053
C         64.19845        73.70430         3.81156
C         62.96267        73.05856         3.43299
C         65.73466        67.43303         2.51467
C         66.80769        69.55412         3.41765
C         65.61812        68.72242         3.18646
C         66.72657        70.89415         3.65143
C         65.44143        71.58366         3.63585
C         66.59282        73.68113         4.38241
C         65.37992        73.01583         3.93300
C         68.00423        71.68946         3.82623
C         67.79062        73.06374         4.38863
O         43.30559        39.29214        -0.42896
O         38.08563        71.82836        -2.52339
O         45.48623        60.94603        -3.23415
O         57.86842        57.99623        -2.57747
O         50.02807        62.05720        -0.24970
O         45.70624        54.41647        -2.89143
O         40.43998        53.00922         1.31240
O         47.78249        62.22081        -3.39108
O         38.47901        69.71653         0.32699
O         45.64645        36.15815         4.13357
O         55.79105        65.49540        -2.69296
O         53.43199        52.09643        -2.27969
O         55.25247        62.08681        -2.93315
O         64.61332        68.70769         4.28391
O         31.83457        58.59715        -2.36378
O         62.47054        67.80757        -0.52220
O         42.93720        62.18062         0.32306
O         37.04780        48.37540         1.74925
O         33.00441        71.92788        -0.99840
O         49.87442        41.52929        -0.22927
O         43.16072        41.63859         2.22491
H         43.20398        42.60914         2.43217
O         40.22827        75.53549        -0.32868
H         40.23620        75.23917         0.60394
O         36.24583        65.08612        -2.98684
H         36.99780        64.63172        -3.42316
O         43.69575        68.79650         0.49077
H         43.63559        69.62936         1.01736
O         49.14604        46.11617        -1.80720
H         49.98013        46.57512        -2.08027
O         43.66309        71.79443         1.07061
H         42.88176        72.32326         1.34109
O         68.95172        70.95821         4.61454
H         68.56390        70.81319         5.50158
O         41.48757        69.39700        -3.29987
H         41.61284        70.34021        -3.53617
O         37.91361        57.34620         1.50833
H         38.79303        57.77436         1.67953
O         42.35549        54.10587        -2.86548
H         43.18031        53.76593        -3.27682
O         48.90685        59.18204        -3.74932
H         48.15048        59.73169        -4.05115
O         43.84850        41.59210        -1.40344
H         43.82916        40.60105        -1.39884
O         50.25673        66.12162        -3.24741
H         50.27396        65.29960        -3.78143
O         60.38362        67.20683        -1.80374
H         61.36898        67.25780        -1.87721
O         40.32326        58.68855         1.23085
H         40.33874        59.64627         1.45175
O         43.09765        58.22859         0.72718
H         42.24010        58.12210         1.20235
O         47.85651        69.54060         0.66693
H         47.09411        69.89250         1.17413
O         61.53208        72.76323         0.67698
H         61.82235        72.16087        -0.04033
O         59.14884        69.68808        -1.59609
H         59.58114        68.88694        -1.99520
O         50.04039        66.73875         0.34679
H         49.75239        67.54387         0.82878
O         62.34795        71.08465         4.61991
H         62.63053        70.15334         4.75975
O         34.31740        71.43049         2.06752
H         35.03061        70.77205         1.93289
O         36.13089        69.07529        -2.45145
H         35.98421        69.97326        -2.81724
O         48.69966        69.65902        -2.89118
H         49.37115        69.15535        -3.39810
O         60.00283        72.29151         3.97639
H         60.74875        71.81359         4.42760
O         43.95547        68.34872        -3.12721
H         43.69868        67.59671        -3.69917
O         26.97167        60.52873         0.85080
H         27.40343        60.54223         1.72943
O         55.35517        71.54152         1.85974
H         55.92357        71.89135         2.59149
O         37.65833        54.31083        -2.25635
H         36.79320        53.92017        -2.50464
O         37.24805        43.93863        -1.13721
H         37.92575        44.23036        -1.78123
O         35.52566        61.37928         0.79263
H         34.74658        61.78666         1.22561
O         52.44812        44.78397         3.09087
H         51.66724        45.33315         3.30898
O         42.41129        57.48292        -2.80076
H         42.29567        56.63404        -3.28114
O         53.66800        67.94232         0.68769
H         53.46629        67.04176         1.01803
O         36.77497        67.85293         0.95403
H         37.59420        68.39171         1.10005
O         42.84277        65.90612         0.50725
H         43.23852        66.79399         0.67824
O         31.10347        60.89774        -2.56597
H         31.35720        60.03162        -3.02546
O         33.85346        50.31904        -2.07021
H         34.60571        50.69625        -2.57093
O         59.59138        65.79032         1.50015
H         59.24494        64.92174         1.79488
O         25.70516        71.53977         1.06711
H         24.82261        71.24726         0.75768
O         43.20100        44.30661         2.08214
H         42.55419        44.85184         2.57855
O         33.80303        63.65314        -2.73784
H         34.55942        64.19725        -3.07371
O         56.28191        59.13294         0.56699
H         55.43216        59.52362         0.86177
O         54.06619        69.35055        -2.67046
H         54.32952        70.26396        -2.91688
O         43.57994        43.98739        -1.50976
H         43.87155        43.24997        -2.09488
O         51.58863        47.52353        -1.73048
H         52.45504        47.07195        -1.82259
O         32.55820        58.92204         1.18689
H         33.29800        58.49431         1.68146
O         40.44303        50.39397         1.82234
H         40.45016        51.40321         1.88518
O         56.35541        55.99723        -3.11103
H         56.74986        56.77802        -3.56659
O         35.14973        57.38858         1.59018
H         36.07995        57.48768         1.91829
O         51.49310        56.13904        -3.48767
H         52.32237        55.65329        -3.68827
O         55.73643        71.94368        -1.78936
H         56.64081        71.56138        -1.83131
O         31.03454        66.45109         2.57633
H         31.07931        67.29589         3.07382
O         57.13810        66.42891         1.01286
H         57.14220        67.14449         1.68353
O         57.52916        72.76149         3.09943
H         58.23390        72.43110         3.71304
O         50.13266        50.34556         1.40789
H         49.26241        50.05540         1.75661
O         29.11070        72.22671         0.28127
H         29.07246        71.39909        -0.24336
O         36.24559        60.54158        -2.69283
H         36.93186        59.96206        -3.08375
O         27.34453        71.19657         4.32359
H         28.16577        71.58993         4.68539
O         58.19110        66.27059        -2.49489
H         57.41067        66.25998        -3.09866
H         23.76028        74.79594         4.45538
H         26.07993        74.91027         3.53612
H         28.58005        74.87830         3.20752
H         30.91773        74.95638         2.37528
H         33.24740        75.00152         1.62825
H         35.51799        75.18250         0.56991
H         37.76144        75.28602        -0.36377
H         40.19882        74.76751        -2.22991
H         42.64803        75.30928        -0.69608
H         45.09475        75.30987        -0.59951
H         47.56825        75.31791        -0.38898
H         50.03608        75.32052        -0.27363
H         52.49595        75.31465        -0.04608
H         54.97628        75.28543         0.27217
H         57.40201        75.12611         1.02322
H         59.89034        74.60966         1.49487
H         61.79270        74.84473         3.34247
H         64.17742        74.78758         4.00484
H         66.50048        74.71553         4.74720
H         22.52359        69.07523         3.26661
H         21.47667        71.13046         4.19260
H         21.64544        73.53381         4.81423
H         24.78194        64.85923         1.85435
H         23.64561        66.95316         2.59456
H         27.20793        61.31418        -1.03001
H         25.88252        62.81419         1.03227
H         29.37061        56.50918        -0.20799
H         28.17139        58.66359        -0.10547
H         31.89929        52.26812        -0.63613
H         30.62608        54.38889        -0.52003
H         34.37087        48.04340        -0.16524
H         33.15451        50.21744        -0.13670
H         36.95713        43.85117         0.89635
H         35.64505        45.87028         0.14143
H         39.26166        39.58205         1.16919
H         38.08072        41.65602         0.57601
H         41.72324        35.40662         2.24703
H         40.51511        37.43204         1.65677
H         45.09857        32.24185         3.48110
H         42.96137        33.40276         3.08317
H         47.26799        33.38411         3.19766
H         48.58559        35.58117         2.74150
H         49.75377        37.70344         2.54925
H         50.92279        39.81846         2.39336
H         52.15246        42.02430         2.15100
H         53.42889        44.04895         1.43803
H         54.58911        46.24725         1.51815
H         55.84147        48.33766         1.18680
H         57.13804        50.43547         0.72198
H         58.40989        52.51676         0.29125
H         59.68257        54.51199        -0.19075
H         60.96897        56.57259        -0.38377
H         62.19132        58.69891        -0.17777
H         63.36089        60.77993         0.25228
H         64.53039        62.85689         0.83116
H         65.64636        64.93838         1.59002
H         66.71246        66.93052         2.48437
H         67.79828        69.07955         3.34282
H         68.47957        71.81280         2.80974
H         68.68225        73.59186         4.75790
