         620
 CSIRO Nanostructure Databank - Neutral Graphene Oxide Data Set
C         22.94221        27.43014        -0.06223
C         22.86945        28.76920        -0.25329
C         22.92945        31.49202        -1.36745
C         22.96099        32.72129        -2.00928
C         23.08513        36.65052        -2.06422
C         23.09942        37.90498        -1.38203
C         23.03421        40.32549         0.27673
C         23.03263        41.56262         0.84531
C         23.06740        44.29194         1.95307
C         23.08692        45.63122         2.13232
C         25.40641        24.60694         0.03130
C         24.21857        25.30366         0.08620
C         25.41926        27.41380        -0.13060
C         24.20419        26.72148         0.00087
C         25.42648        28.88535        -0.10804
C         24.07489        29.61717        -0.19887
C         25.33021        31.68314        -0.90040
C         24.10504        30.95997        -0.81504
C         25.33959        33.01939        -1.41277
C         24.14555        33.46749        -2.01292
C         25.47903        36.19959        -1.50675
C         24.16814        35.81439        -2.05140
C         25.49866        37.62480        -0.91232
C         24.23538        38.37705        -0.76096
C         25.46371        40.12260         0.50048
C         24.26397        39.60376         0.02985
C         25.49332        41.33977         1.39720
C         24.24942        42.20017         1.27811
C         25.56725        44.13852         2.06604
C         24.27079        43.50487         1.71836
C         25.58151        45.62213         2.25213
C         24.34470        46.41857         1.89004
C         25.58988        48.38804         2.70943
C         24.39965        47.77441         2.54787
C         27.91890        23.15442        -0.33989
C         27.89449        24.57194        -0.24006
C         26.64593        25.28013        -0.14477
C         27.88185        27.40045        -0.42838
C         26.65086        26.70228        -0.24392
C         27.84776        28.82332        -0.92042
C         26.62349        29.61278        -0.53046
C         27.84059        31.71443        -0.92771
C         26.59474        30.98553        -0.71647
C         27.82175        33.11149        -1.11079
C         26.55882        33.84196        -1.27989
C         27.83571        35.86952        -0.72036
C         26.57396        35.23291        -1.20785
C         27.88289        37.28449        -0.19698
C         26.66864        38.11016        -0.17344
C         27.98013        40.05277         0.57620
C         26.70348        39.40199         0.32130
C         28.00339        41.43377         0.97934
C         26.79866        42.11484         1.30766
C         28.05956        44.19206         1.73101
C         26.83701        43.46115         1.70555
C         28.07467        45.62598         1.98558
C         26.86542        46.34901         2.16607
C         28.08712        48.46038         2.31508
C         26.85736        47.73445         2.37871
C         28.11092        49.88383         2.38377
C         30.35394        23.15772        -0.35911
C         29.10796        22.47490        -0.43153
C         30.36784        24.58331        -0.25564
C         29.12576        25.28874        -0.25032
C         30.35292        27.46643        -0.32754
C         29.10923        26.72634        -0.33874
C         30.31024        28.88150        -0.41006
C         29.11130        29.58642        -0.64977
C         30.32937        31.71166        -0.87507
C         29.08285        30.99752        -0.78337
C         30.29311        33.09188        -1.22012
C         29.07795        33.81288        -1.24339
C         30.28793        36.00007        -1.11990
C         29.10780        35.24589        -1.12958
C         30.30421        37.36869        -0.65960
C         29.16466        38.01318        -0.19461
C         30.42886        40.11114         0.28927
C         29.17742        39.39870         0.21962
C         30.47079        41.46783         0.73014
C         29.24809        42.13550         1.05111
C         30.53877        44.18869         1.51513
C         29.27799        43.51291         1.42644
C         30.55403        45.57875         1.99465
C         29.29411        46.33779         2.02867
C         30.55375        48.49716         2.01803
C         29.31739        47.75388         2.14676
C         30.52298        49.92169         2.00832
C         29.27946        50.58497         2.22358
C         32.86155        20.33605        -0.59658
C         31.65397        21.03880        -0.59746
C         32.80481        23.13695         0.02233
C         31.57761        22.41400        -0.34060
C         32.83208        24.60584        -0.10455
C         31.61791        25.30884        -0.19251
C         32.81513        27.45833         0.00296
C         31.60816        26.76736        -0.17886
C         32.83083        28.93010         0.12909
C         31.53281        29.66660        -0.15258
C         32.81153        31.72038        -0.84249
C         31.56467        31.05731        -0.64613
C         32.81717        33.09290        -1.25926
C         31.54968        33.76089        -1.52881
C         32.83421        35.99288        -1.29713
C         31.54679        35.36004        -1.53866
C         32.83710        37.45380        -1.12397
C         31.54083        38.16481        -0.78949
C         32.86876        40.14237        -0.01125
C         31.62346        39.48551        -0.13756
C         32.92680        41.49191         0.45231
C         31.72062        42.16428         0.78612
C         32.99987        44.28196         1.13974
C         31.74686        43.54848         1.18494
C         33.04463        45.67051         1.37673
C         31.86017        46.36317         1.89963
C         32.98442        48.54759         1.56485
C         31.79427        47.83072         1.81387
C         32.96217        49.98000         1.57125
C         31.73292        50.66444         1.77931
C         32.89064        52.79702         1.51502
C         31.73441        52.08892         1.73367
C         35.38695        18.83535        -0.38111
C         35.32119        20.24100        -0.24938
C         34.09931        20.94571        -0.30929
C         35.38228        23.13665        -0.05056
C         34.10667        22.38082         0.05509
C         35.33534        24.59199        -0.07196
C         34.10040        25.26631        -0.05310
C         35.42887        27.47100         0.04329
C         34.08118        26.72494         0.14933
C         35.43597        28.95224        -0.14485
C         34.11478        29.69273        -0.08190
C         35.27339        31.66485        -1.02732
C         34.05243        31.03911        -0.67881
C         35.26865        33.09918        -1.24531
C         34.02680        33.81062        -1.31863
C         35.29417        35.93691        -1.25361
C         34.03121        35.25716        -1.32106
C         35.32361        37.41492        -1.16344
C         34.08871        38.13159        -0.76848
C         35.37335        40.07366         0.07895
C         34.09448        39.42534        -0.30610
C         35.40866        41.53196         0.27362
C         34.19156        42.20382         0.50224
C         35.44284        44.31986         0.71058
C         34.21105        43.60616         0.77715
C         35.45475        45.74238         0.88296
C         34.23832        46.42379         1.18154
C         35.42944        48.58631         1.17085
C         34.22397        47.85246         1.31638
C         35.42207        50.02281         1.25339
C         34.17765        50.71665         1.39627
C         35.36915        52.87987         1.23282
C         34.14462        52.14003         1.36442
C         35.38054        54.31188         1.11362
C         37.80074        18.80183         0.06922
C         36.55234        18.13865        -0.12052
C         37.83633        20.24799         0.00375
C         36.53563        20.95711         0.31173
C         37.85636        23.18040         0.22033
C         36.55897        22.44083         0.00800
C         37.81510        24.59992        -0.29271
C         36.59384        25.30784        -0.22174
C         37.80393        27.41386        -0.76315
C         36.61940        26.72438        -0.37303
C         37.79249        28.82336        -1.03836
C         36.58944        29.56437        -0.84350
C         37.65994        31.61605        -1.79669
C         36.48694        30.92230        -1.16104
C         37.74327        33.02002        -1.22535
C         36.48108        33.80147        -1.25941
C         37.78831        35.93731        -1.38695
C         36.49106        35.22091        -1.25697
C         37.89002        37.34695        -0.99500
C         36.63348        38.10080        -0.95664
C         37.92816        40.12641        -0.26959
C         36.66171        39.37900        -0.20489
C         37.89877        41.52273        -0.03688
C         36.65730        42.21423         0.24070
C         37.89825        44.34657         0.34280
C         36.66655        43.62715         0.43880
C         37.90678        45.78488         0.52004
C         36.67514        46.47640         0.77911
C         37.88136        48.63736         0.85128
C         36.66148        47.89528         0.93408
C         37.89119        50.05803         1.01548
C         36.63735        50.76084         1.19932
C         37.84122        52.97094         1.32215
C         36.59802        52.18466         1.24114
C         37.82500        54.41013         1.02727
C         36.54216        55.03092         0.96715
C         40.22857        16.05385         0.91538
C         39.03092        16.68200         0.64905
C         40.26958        18.73011         0.05865
C         38.98588        18.05885         0.29451
C         40.27617        20.18745        -0.34613
C         39.02075        20.95538        -0.17488
C         40.24151        23.10489        -0.46883
C         39.07512        22.40087        -0.20515
C         40.26086        24.54771        -0.56325
C         39.02838        25.28257        -0.56672
C         40.27233        27.36345        -1.12189
C         39.03769        26.68866        -0.84352
C         40.28750        28.77459        -1.49755
C         39.01407        29.49712        -1.47814
C         40.16241        31.60466        -2.20735
C         38.97323        30.86339        -1.73190
C         40.19274        33.06252        -1.94757
C         39.05933        33.70694        -1.25896
C         40.35587        35.89233        -1.25149
C         39.06707        35.18705        -1.42666
C         40.36400        37.28643        -0.95200
C         39.09830        37.99023        -0.80249
C         40.36748        40.10105        -0.55498
C         39.11906        39.41990        -0.54098
C         40.35994        41.52256        -0.38911
C         39.12245        42.24437        -0.14670
C         40.32213        44.42247        -0.20261
C         39.09066        43.65316         0.02387
C         40.37516        45.83626         0.23951
C         39.11389        46.51487         0.47346
C         40.32438        48.66335         0.60137
C         39.10849        47.93753         0.65023
C         40.31929        50.06156         0.65720
C         39.11795        50.75953         0.91082
C         40.30532        52.99829         0.64794
C         39.17946        52.21960         1.16148
C         40.26129        54.38717         0.53757
C         39.03484        55.11069         0.80728
C         40.21934        57.22898         0.47232
C         39.06689        56.54589         0.74413
C         42.66847        16.18174         1.47402
C         41.46338        16.79208         0.99013
C         42.59929        19.02634         1.07716
C         41.49180        18.13059         0.59608
C         42.76551        20.32725         0.33092
C         41.59178        20.91730        -0.35771
C         42.76769        23.18683        -0.35755
C         41.54161        22.40351        -0.58671
C         42.74900        24.55593        -0.50723
C         41.48000        25.25106        -0.72459
C         42.78378        27.27329        -1.42905
C         41.47753        26.63554        -1.02207
C         42.77255        28.77815        -1.49659
C         41.50543        29.43310        -1.78139
C         42.81192        31.57067        -2.24406
C         41.51801        30.82951        -2.29679
C         43.00793        32.87395        -2.64748
C         41.18683        33.92740        -2.34681
C         42.80941        35.79204        -1.66881
C         41.48570        35.21139        -1.72260
C         42.87460        37.14115        -0.92355
C         41.58843        37.95943        -0.92447
C         42.84066        40.07618        -0.70569
C         41.59988        39.37883        -0.73381
C         42.82881        41.49331        -0.54552
C         41.59828        42.19461        -0.42104
C         42.88347        44.32569        -0.09706
C         41.61173        43.66264        -0.39103
C         42.91176        45.76346         0.35104
C         41.57970        46.47740         0.36253
C         42.69348        48.63819        -0.23516
C         41.64489        47.94806         0.66287
C         42.68655        50.12064        -0.24811
C         41.62468        50.82855         0.58305
C         42.63536        52.99172        -0.44411
C         41.43590        52.24475         0.08281
C         42.65623        54.45130        -0.22607
C         41.45387        55.11764         0.13268
C         42.63543        57.24798        -0.08640
C         41.44215        56.53873         0.17127
C         43.84073        16.91545         1.59238
C         45.06483        19.09588         1.55269
C         43.89202        18.30248         1.34173
C         45.06326        20.48799         1.21406
C         43.91347        21.05615         0.50958
C         45.17434        23.28680         0.35740
C         43.99936        22.43758        -0.04403
C         45.11139        24.75273         0.21008
C         43.96053        25.34717        -0.33422
C         45.18377        27.44603        -0.62394
C         43.98233        26.71686        -0.69640
C         45.25304        28.78749        -1.16848
C         44.00455        29.42917        -1.54948
C         45.35462        31.51092        -2.29326
C         44.04513        30.71218        -2.34370
C         45.36470        33.00582        -2.16544
C         44.15907        33.70057        -2.29292
C         45.28612        35.91444        -1.99696
C         44.01113        35.12839        -1.97599
C         45.32631        37.34225        -1.54099
C         44.10689        37.98059        -1.19398
C         45.31768        40.10375        -0.83837
C         44.08826        39.37197        -0.91206
C         45.28292        41.50395        -0.57987
C         44.06964        42.21365        -0.51085
C         45.32913        44.39016        -0.28267
C         44.06834        43.64523        -0.28528
C         45.31618        45.80176        -0.28314
C         43.98882        46.48657        -0.50447
C         45.16868        48.71561         0.05073
C         43.98598        47.95760        -0.29160
C         45.17512        50.17810        -0.20834
C         43.98020        50.83446        -0.38805
C         45.19164        53.03623        -0.44991
C         43.94320        52.28093        -0.81459
C         45.15524        54.43895        -0.42438
C         43.87408        55.16300        -0.35089
C         43.82942        56.57554        -0.29733
C         47.30033        19.34839         2.51485
C         46.22996        18.55333         2.16227
C         47.29271        20.74549         2.26590
C         46.17406        21.28455         1.58184
C         47.33107        23.59512         1.65414
C         46.12488        22.74089         1.35530
C         47.45394        24.90854         0.99857
C         46.29938        25.50644         0.41164
C         47.61442        27.52670        -0.09837
C         46.36447        26.84390        -0.08355
C         47.70328        28.82842        -0.70657
C         46.50299        29.42483        -1.26463
C         47.87728        31.54202        -1.79324
C         46.59418        30.77126        -1.88924
C         47.81663        33.01611        -1.80216
C         46.61458        33.68839        -1.94735
C         47.86945        35.90382        -1.77509
C         46.61659        35.16937        -2.06712
C         47.83543        37.40360        -1.98382
C         46.54736        38.04430        -1.47768
C         47.80414        40.11880        -0.96611
C         46.57308        39.41932        -1.06649
C         47.83641        41.50662        -0.47559
C         46.53311        42.22720        -0.27771
C         47.77497        44.41574        -0.36859
C         46.55556        43.70252        -0.30669
C         47.76195        45.83676        -0.29143
C         46.51797        46.51851        -0.19794
C         47.74090        48.73917        -0.08894
C         46.50874        47.96864         0.07783
C         47.68230        50.18613        -0.12926
C         46.44271        50.88328        -0.24927
C         47.64981        53.04888        -0.37847
C         46.42375        52.31881        -0.36128
C         47.59549        54.46536        -0.39205
C         46.39113        55.13850        -0.36992
C         49.57613        21.04008         3.27421
C         48.44911        21.57808         2.59543
C         49.74113        23.65641         2.22557
C         48.52595        22.92294         2.17169
C         49.84281        24.95520         1.60669
C         48.68571        25.57904         1.01187
C         50.03929        27.55677         0.40901
C         48.78134        26.89365         0.43208
C         50.12675        28.87997        -0.13736
C         48.96216        29.48023        -0.71166
C         50.33967        31.59373        -1.06885
C         49.11118        30.82002        -1.32085
C         50.39822        33.00718        -1.50853
C         49.09540        33.75518        -1.81978
C         50.32165        35.92084        -1.44048
C         49.07303        35.22855        -1.63811
C         50.32168        37.35527        -1.41886
C         49.10235        38.07798        -1.51897
C         50.27002        40.20243        -1.13713
C         49.07129        39.47791        -1.22580
C         50.33445        41.56189        -0.48743
C         49.05819        42.32866        -0.59707
C         50.27361        44.48041        -0.46134
C         49.03930        43.70897        -0.47359
C         50.24450        45.89181        -0.34408
C         48.98905        46.58909        -0.26620
C         50.21088        48.72882         0.05179
C         48.94529        48.01059        -0.16082
C         50.18736        50.25754         0.04007
C         48.89895        50.93765        -0.18492
C         50.15817        53.01055        -0.53096
C         48.90090        52.33236        -0.36454
C         50.72355        21.78366         3.45467
C         52.11294        23.78559         2.89864
C         50.85964        23.07862         2.89077
C         52.23786        24.95341         2.11283
C         51.10643        25.58668         1.51638
C         52.45676        27.56971         0.84108
C         51.21809        26.89938         0.90025
C         52.56276        28.91740         0.36281
C         51.38367        29.56691        -0.13722
C         52.78056        31.57496        -0.81899
C         51.46199        30.92271        -0.62636
C         52.82179        33.07802        -0.96553
C         51.56209        33.81574        -1.11266
C         52.80198        35.94534        -1.06051
C         51.55351        35.21664        -1.21143
C         52.80638        37.37507        -1.14937
C         51.56352        38.05147        -1.30829
C         52.82599        40.29034        -1.32579
C         51.53047        39.51344        -1.42418
C         52.78091        41.72828        -0.96060
C         51.56702        42.38084        -0.76743
C         52.75113        44.53325        -0.57834
C         51.52824        43.79784        -0.59583
C         52.73639        45.95168        -0.40817
C         51.48772        46.63323        -0.32732
C         52.68603        48.78974        -0.15250
C         51.48216        48.04289        -0.19055
C         52.66342        50.23891        -0.19825
C         51.45171        50.95146        -0.25345
C         51.36220        52.35161        -0.52387
C         54.47697        23.92890         3.55993
C         53.24767        23.30458         3.62261
C         54.71114        25.01257         2.67651
C         53.58496        25.46734         1.86363
C         54.92828        27.61131         1.41014
C         53.69802        26.86362         1.17847
C         54.98236        28.96299         0.95651
C         53.82953        29.56658         0.37535
C         55.05330        31.73948         0.30039
C         54.05632        30.82536        -0.44284
C         55.20468        33.14336        -0.24940
C         54.06230        33.82328        -0.67741
C         55.25417        35.97462        -0.75645
C         54.03255        35.25452        -0.84117
C         55.27132        37.38965        -0.80262
C         54.04078        38.10556        -0.99790
C         55.23333        40.27835        -0.84338
C         54.06548        39.54257        -1.03638
C         55.24770        41.71960        -0.89897
C         54.00984        42.43941        -0.87334
C         55.23331        44.56548        -0.60392
C         54.00016        43.84702        -0.68189
C         55.22849        45.98073        -0.37633
C         53.96320        46.68174        -0.26964
C         55.16130        48.84437         0.14578
C         53.92641        48.08575        -0.11894
C         55.10792        50.30262        -0.02403
C         53.92906        50.93888        -0.22205
C         57.15572        25.06185         3.08300
C         55.97488        25.65702         2.54644
C         57.32717        27.65355         1.95896
C         56.07039        26.96204         1.93866
C         57.42157        28.98990         1.43909
C         56.25674        29.62585         0.96548
C         57.66462        31.72141         0.45770
C         56.35664        30.96939         0.37737
C         57.63974        33.19456         0.30399
C         56.45667        33.82027        -0.13833
C         57.80843        36.00020        -0.36125
C         56.50976        35.21879        -0.60868
C         57.71265        37.46902        -0.31843
C         56.50121        38.10337        -0.57540
C         57.74742        40.23794        -0.82144
C         56.46961        39.59154        -0.33973
C         57.73864        41.73676        -1.05592
C         56.45867        42.44824        -0.88434
C         57.70987        44.58483        -0.78824
C         56.46504        43.86048        -0.74852
C         57.68358        46.00319        -0.65135
C         56.45569        46.67498        -0.35563
C         57.75366        48.83585        -0.24053
C         56.50871        48.09693         0.01962
C         58.36879        25.70515         3.03580
C         59.72778        27.70088         2.48139
C         58.47640        27.01717         2.49190
C         59.82458        28.98683         2.01009
C         58.68973        29.68767         1.49787
C         59.93215        31.85492         1.39113
C         58.79410        31.05857         1.12725
C         59.96294        33.20781         1.09439
C         58.84420        33.91645         0.57065
C         59.94834        36.14267         0.83687
C         58.90201        35.34064         0.37262
C         59.99738        37.52115         0.56604
C         58.92125        38.20400        -0.01127
C         60.17284        40.33719        -0.45708
C         59.00130        39.60037        -0.39644
C         60.17377        41.73314        -0.72115
C         59.00939        42.46116        -0.91613
C         60.14283        44.67888        -1.03594
C         58.96494        43.91377        -0.92190
C         60.10705        46.06909        -0.99020
C         58.89851        46.74668        -0.76478
C         58.87644        48.18436        -0.62702
O         57.49618        35.42751        -1.67182
O         57.21497        31.04637        -0.78699
O         33.39656        22.66413         1.31228
O         53.89281        25.61693         0.44216
O         24.08402        34.63351        -2.78373
O         32.06597        38.16466        -2.16468
O         38.55039        33.16478         0.00176
O         34.88447        27.08956         1.33324
O         40.29823        19.16596        -1.38352
O         35.98677        38.13423        -2.28267
O         45.79729        48.30288         1.33088
O         36.07901        39.30356         1.14526
O         47.23415        41.64610         0.89383
O         50.21689        49.50473         1.30191
O         38.42939        35.61215        -2.69187
O         40.88796        44.25976        -1.55667
O         52.94054        32.15087        -2.15122
O         45.15316        22.61341        -0.94301
O         25.51689        44.74920         3.41810
O         49.97928        33.30282        -2.88861
O         57.71632        40.75753        -2.16995
O         46.22543        30.92742        -3.32032
O         42.17966        49.36528        -1.41227
O         48.79874        30.92346        -2.76315
O         41.57797        52.49624        -1.35328
O         52.24275        40.02478        -2.64270
O         25.94525        37.36430        -2.30501
O         24.78918        29.49638         1.06652
O         41.78362        21.46897        -1.70556
O         45.96141        35.68424        -3.29199
O         27.80480        36.13706         0.74655
O         31.49288        34.55727        -2.74283
O         42.02567        33.53921        -3.38243
O         55.90316        48.39344         1.32683
O         40.68858        31.09411        -3.46723
O         31.39274        45.80759         3.18065
O         32.03615        29.48315         1.22660
O         46.16636        23.53188         2.58123
O         35.03501        29.66549         1.06351
O         38.68374        52.61251         2.47443
O         42.95836        26.86398        -2.83778
H         43.49285        27.55306        -3.29028
O         38.00479        23.31333         1.68282
H         37.19834        23.75698         2.02337
O         47.82515        37.61881        -3.44043
H         47.12706        37.01922        -3.80685
O         42.15919        50.95082         1.92442
H         42.20678        50.03627         2.30266
O         43.65060        46.25480        -1.90329
H         42.84862        46.77630        -2.12233
O         43.96985        52.23168        -2.27892
H         43.05925        51.97747        -2.55906
O         43.43364        45.80091         1.72063
H         42.90259        45.18788         2.27119
O         54.53184        31.88984         1.65272
H         55.12452        32.49196         2.14933
O         42.10132        19.45572         2.42737
H         42.12781        18.66360         3.00739
O         36.38027        20.85162         1.77113
H         35.52716        21.27662         2.00847
O         24.44558        46.63520         0.44304
H         23.68643        47.19089         0.16896
O         50.45365        41.22325         0.96357
H         49.54051        41.15712         1.32414
O         37.34586        31.75263        -3.21866
H         38.17627        31.94243        -3.70649
O         27.76051        28.69143        -2.39884
H         27.84117        29.59459        -2.77511
O         43.90924        30.19486        -3.71465
H         44.80673        30.24033        -4.12818
O         25.45468        40.80639         2.76894
H         25.45340        41.57248         3.38263
O         56.47293        39.79252         1.11956
H         55.64635        39.40581         1.47785
O         42.14721        48.15169         2.02467
H         42.87926        47.49542         2.16543
O         54.67048        30.36069        -1.65517
H         54.40506        30.97423        -2.37965
O         43.03465        36.71151         0.48801
H         43.01360        37.51970         1.04435
H         22.02046        26.82962        -0.04924
H         21.88666        29.23639        -0.40720
H         21.98801        30.93012        -1.32993
H         22.06871        33.12599        -2.50269
H         22.16812        36.32816        -2.57363
H         22.16307        38.47699        -1.35400
H         22.07960        39.88799        -0.04345
H         22.08306        42.10904         0.93323
H         22.10903        43.75806         2.03671
H         22.15318        46.17473         2.34428
H         25.38232        23.51379         0.12988
H         23.26759        24.76533         0.20611
H         25.61848        49.39994         3.13849
H         23.46272        48.28292         2.82255
H         26.98026        22.58648        -0.36720
H         27.17417        50.43837         2.52681
H         29.08886        21.38075        -0.51382
H         29.23910        51.68123         2.25392
H         32.83037        19.26534        -0.83885
H         30.74244        20.47869        -0.84519
H         32.83827        53.89310         1.49016
H         30.79931        52.64665         1.87085
H         34.48314        18.26819        -0.64319
H         34.42748        54.85510         1.07525
H         36.53161        17.04111        -0.15910
H         36.47128        56.11454         0.80078
H         40.23850        14.98841         1.18664
H         38.09659        16.10894         0.73114
H         40.22381        58.32866         0.47618
H         38.15302        57.11285         0.96799
H         42.66477        15.10935         1.71271
H         42.62022        58.34728        -0.07457
H         44.75629        16.38420         1.88832
H         44.74478        57.16434        -0.44076
H         48.16170        18.87811         3.00666
H         46.27074        17.48232         2.40130
H         48.52405        55.05123        -0.38373
H         46.40546        56.23568        -0.33973
H         49.54406        20.01929         3.67668
H         50.15987        54.09141        -0.72373
H         51.56615        21.32962         3.99260
H         52.27547        52.92902        -0.72127
H         55.29477        23.55187         4.18922
H         53.13416        22.43812         4.28711
H         56.03511        50.88524         0.05959
H         53.93050        52.03292        -0.31784
H         57.10219        24.05213         3.51210
H         57.78053        49.91820        -0.05574
H         59.27069        25.21700         3.43204
H         60.61853        27.18563         2.86849
H         60.80500        29.48129         2.02059
H         60.82492        31.40472         1.84567
H         60.89188        33.75686         1.29801
H         60.78856        35.69351         1.38351
H         60.89968        38.07818         0.85411
H         61.13408        39.86038        -0.21759
H         61.13844        42.25600        -0.65727
H         61.10868        44.17654        -1.18050
H         61.03731        46.64548        -1.09466
H         59.81309        48.73814        -0.78740
