         404
 CSIRO Nanostructure Databank - Neutral Graphene Oxide Data Set
C          1.19094         3.46620         0.84092
C         -0.00932         4.16910         0.83380
C          1.17074         6.29255         0.54349
C         -0.02478         5.55908         0.68487
C          1.18364         7.73722         0.40782
C         -0.04900         8.49366         0.40106
C          1.17134        10.62630         0.43163
C         -0.07422         9.85101         0.42442
C          1.17905        12.14897         0.10180
C         -0.07079        12.87911        -0.21034
C          1.15983        14.83131        -1.21648
C         -0.08072        14.09446        -0.77690
C          1.19295        16.31460        -0.81571
C         -0.04323        17.02509        -0.50388
C          1.09139        19.19892        -0.77176
C         -0.11001        18.37630        -0.49095
C          1.05678        20.72174        -0.64352
C         -0.17639        21.43781        -0.29165
C          1.09133        23.47785         0.23675
C         -0.14144        22.73378         0.11033
C          1.09721        24.87136         0.48277
C         -0.11744        25.62991         0.52728
C          1.11379        27.73276         0.79242
C         -0.10791        26.99238         0.63287
C          1.10549        29.17285         0.73134
C         -0.02104        29.85384         0.26999
C          1.16421        32.00164         0.13524
C         -0.01677        31.23505         0.04999
C          1.17351        33.39623        -0.24104
C         -0.02023        34.10083        -0.54566
C          1.21598        36.15789        -0.94196
C         -0.00268        35.44191        -0.88269
C          1.24772        37.54906        -1.28009
C          3.66010         3.45410         0.66512
C          2.41478         4.15638         0.69927
C          3.65243         6.26677         0.42407
C          2.40980         5.57627         0.55670
C          3.65280         7.69026         0.28214
C          2.40583         8.42531         0.29260
C          3.60138        10.56669        -0.03769
C          2.42268         9.87273         0.22149
C          3.61122        11.97773        -0.31868
C          2.43877        12.73405        -0.37952
C          3.61153        14.84412        -0.84487
C          2.44088        14.13281        -0.79020
C          3.64288        16.30300        -1.16797
C          2.36388        17.01594        -0.90431
C          3.65372        19.23989        -0.95101
C          2.41424        18.47679        -0.49185
C          3.58696        20.73551        -0.69600
C          2.32218        21.42996        -0.36912
C          3.58334        23.50356         0.21428
C          2.33249        22.76467         0.04177
C          3.56132        24.87531         0.58179
C          2.33804        25.58897         0.68272
C          3.55439        27.73452         1.28471
C          2.31523        27.00097         0.91645
C          3.56317        29.22877         1.39659
C          2.25298        30.02714         1.25946
C          3.59005        32.06388         0.50111
C          2.38005        31.36931         0.55548
C          3.63421        33.41735         0.02518
C          2.41480        34.09251        -0.29003
C          3.66714        36.18340        -0.71087
C          2.43325        35.47706        -0.65099
C          3.67696        37.57484        -1.05570
C          2.43242        38.23371        -1.33129
C          6.12533         3.30150         0.35335
C          4.85889         4.11413         0.50150
C          6.12660         6.24480         0.30570
C          4.88235         5.54510         0.39921
C          6.12032         7.66354         0.17370
C          4.88133         8.35988         0.11933
C          6.17579        10.52835        -0.20063
C          4.85655         9.79588        -0.21171
C          6.16256        11.99781        -0.10535
C          4.90762        12.64704        -0.57228
C          6.07542        14.91572        -0.23435
C          4.89451        14.13497        -0.70603
C          6.19063        16.25485        -0.84949
C          4.96554        17.04036        -1.24494
C          6.12807        19.31585        -0.97680
C          4.98094        18.53581        -1.01858
C          6.11269        20.65836        -0.32884
C          4.82260        21.39331        -0.18204
C          6.07516        23.52834         0.17126
C          4.82297        22.84648         0.05768
C          6.11060        24.89563         0.49829
C          4.84740        25.53818         0.89498
C          6.13140        27.77081         1.05730
C          4.86670        27.00911         1.22526
C          6.13882        29.20820         1.08014
C          4.88534        29.95838         1.30956
C          6.13434        32.06721         0.51362
C          4.86635        31.43586         0.92678
C          6.11993        33.43630         0.12879
C          4.87713        34.11667        -0.08125
C          6.12222        36.20887        -0.54457
C          4.88994        35.50127        -0.44466
C          6.12144        37.60762        -0.88238
C          4.89526        38.26574        -1.12450
C          8.61157         3.42859         0.46071
C          7.40451         4.10452         0.41986
C          8.61074         6.24744         0.36019
C          7.37550         5.53290         0.35756
C          8.60819         7.68172         0.32122
C          7.37786         8.37972         0.18219
C          8.58870        10.50963         0.36949
C          7.40075         9.79587         0.14627
C          8.54260        11.97768         0.54034
C          7.30014        12.69098         0.16044
C          8.64253        14.84868        -0.02387
C          7.33007        14.17702         0.14161
C          8.67837        16.18291        -0.48867
C          7.45731        16.68441        -1.10006
C          8.61211        19.32846        -0.68326
C          7.46261        18.84090        -1.25812
C          8.61960        20.74074        -0.33907
C          7.36383        21.44943        -0.28124
C          8.55417        23.61073        -0.11009
C          7.31411        22.81575        -0.05405
C          8.56282        24.97553         0.43144
C          7.34826        25.61784         0.68541
C          8.59357        27.77866         1.10683
C          7.31816        27.04430         0.97359
C          8.59755        29.23240         0.84403
C          7.34932        29.92672         0.86156
C          8.59410        32.04154         0.41073
C          7.34942        31.35584         0.62271
C          8.59296        33.45099         0.13930
C          7.35592        34.13867        -0.02280
C          8.59338        36.23825        -0.45844
C          7.35492        35.53261        -0.33032
C          8.57845        37.65170        -0.78679
C          7.35221        38.30075        -0.98125
C         11.08482         3.43100         0.31407
C          9.86371         4.11766         0.40568
C         11.08640         6.27209         0.33014
C          9.84946         5.55266         0.37285
C         11.08512         7.69528         0.38187
C          9.83887         8.40246         0.38575
C         11.06757        10.55933         0.45829
C          9.82479         9.82639         0.44236
C         11.10097        11.97553         0.46363
C          9.84478        12.74216         0.60849
C         11.06038        14.90443         0.19226
C          9.85141        14.18511         0.24515
C         11.06140        16.31486         0.02292
C          9.85850        16.97577        -0.34873
C         11.08011        19.24355        -0.07231
C          9.79835        18.48114        -0.32663
C         11.08695        20.68716        -0.44986
C          9.82329        21.41476        -0.23440
C         11.16171        23.55763        -0.00808
C          9.87188        22.86859        -0.27085
C         11.11796        24.89600         0.33076
C          9.88185        25.49760         0.96907
C         11.12682        27.77572         0.76025
C          9.89431        27.02344         1.07469
C         11.08488        29.19834         0.71118
C          9.82523        29.91177         0.69583
C         11.06167        32.04033         0.31850
C          9.82615        31.33360         0.47916
C         11.06071        33.44352         0.10262
C          9.82179        34.16675        -0.01041
C         11.11614        36.26190        -0.63180
C          9.81313        35.56618        -0.28900
C         11.06262        37.79280        -0.73030
C          9.79790        38.36710        -0.91560
C         13.47056         3.46588        -0.28721
C         12.31088         4.12702         0.08868
C         13.54701         6.29047         0.15283
C         12.31868         5.58076         0.18316
C         13.57051         7.71138         0.33587
C         12.32146         8.40731         0.40014
C         13.51896        10.54435         0.41886
C         12.29287         9.83626         0.42638
C         13.53606        11.96166         0.31431
C         12.32358        12.67429         0.35440
C         13.62178        14.90420         0.37519
C         12.32237        14.16477         0.46722
C         13.64734        16.35237         0.08723
C         12.35356        17.04712         0.24150
C         13.67088        19.20176        -0.25594
C         12.39877        18.54871         0.11962
C         13.66562        20.63890        -0.55171
C         12.38479        21.42919        -0.54919
C         13.63790        23.49935         0.16761
C         12.40746        22.86860        -0.20821
C         13.62851        24.91053         0.43802
C         12.37218        25.67847         0.10513
C         13.56640        27.77895         0.68443
C         12.33561        27.08429         0.62017
C         13.53273        29.19589         0.62968
C         12.31412        29.90207         0.54271
C         13.52042        32.05659         0.26194
C         12.31352        31.33990         0.36194
C         13.53752        33.47577         0.24525
C         12.29918        34.16009         0.09230
C         13.48955        36.22379         0.32046
C         12.29059        35.58368         0.04940
C         13.50641        38.25133        -0.54631
C         12.20098        38.58528        -1.02150
C         15.89456         3.49698        -0.93615
C         14.61334         4.25514        -0.84818
C         15.99876         6.25096        -0.15428
C         14.76424         5.60577        -0.18830
C         16.13499         7.59891         0.54792
C         14.81702         8.41831         0.45216
C         15.88077        10.65098         0.91142
C         14.74656         9.81305         0.58331
C         16.05758        11.92623         0.47352
C         14.83385        12.66125         0.09561
C         16.13368        14.90413         0.33457
C         14.87686        14.15259         0.10902
C         16.10711        16.26951         0.16536
C         14.85423        17.02854        -0.00546
C         16.12747        19.22656        -0.15134
C         14.87910        18.49171        -0.18119
C         16.17413        20.61316        -0.00229
C         14.97148        21.40735        -0.29942
C         16.07259        23.36614         0.75812
C         14.86823        22.78518         0.18793
C         16.06515        24.91642         1.01610
C         14.80490        25.62627         0.70320
C         16.04770        27.74438         1.04476
C         14.79818        27.04332         0.75178
C         16.05736        29.26397         0.88363
C         14.80667        29.87813         0.38293
C         16.07315        32.09323         0.33300
C         14.81086        31.36710         0.15535
C         16.04943        33.50482         0.30131
C         14.78616        34.18749         0.24503
C         15.97069        36.36610         0.01380
C         14.76677        35.60168         0.22287
C         15.96077        37.73529        -0.52227
C         14.77922        38.41710        -1.04691
C         18.30046         3.50535        -1.42283
C         17.09276         4.18094        -1.00598
C         18.36290         6.30221        -0.95645
C         17.15198         5.59392        -0.69071
C         18.44728         7.70545        -0.68198
C         17.40528         8.33244         0.07614
C         18.69582        10.47851         0.05163
C         17.70757         9.58371         0.57765
C         18.65323        11.90166         0.26020
C         17.37898        12.61646         0.66883
C         18.68544        14.84154         0.53102
C         17.37172        14.12414         0.63031
C         18.67826        16.34612         0.37313
C         17.38932        17.00069         0.00427
C         18.68074        19.20956         0.03188
C         17.40697        18.49023        -0.19581
C         18.65964        20.61556         0.23004
C         17.40383        21.32515         0.25998
C         18.58958        23.45118         0.71062
C         17.37966        22.70538         0.54510
C         18.57610        24.88468         0.89827
C         17.34493        25.61901         0.95578
C         18.52767        27.79879         0.91903
C         17.34578        27.04744         0.94552
C         18.53261        29.23413         0.73958
C         17.31838        29.96379         0.63741
C         18.53294        32.10083         0.38198
C         17.29905        31.37342         0.42020
C         18.52532        33.53312         0.31650
C         17.26474        34.25656         0.30832
C         18.45935        36.44689         0.13090
C         17.20340        35.67345         0.14987
C         18.44059        37.78941        -0.46566
C         17.17928        38.35668        -0.79560
C         19.44229         4.20335        -1.68536
C         20.65654         6.36740        -1.81482
C         19.49158         5.62663        -1.49653
C         20.71850         7.72928        -1.58963
C         19.63294         8.43338        -0.99763
C         20.81542        10.65746        -1.12139
C         19.72687         9.85232        -0.70779
C         20.85855        11.99616        -0.79072
C         19.78622        12.65816        -0.12812
C         21.02559        14.84219        -0.15999
C         19.88103        14.10674         0.09310
C         21.05965        16.26927        -0.16268
C         19.92411        17.03932        -0.01700
C         21.10712        19.24216         0.11889
C         19.90379        18.50137        -0.00169
C         21.09248        20.61045         0.31315
C         19.87622        21.33342         0.39644
C         21.03330        23.50760         0.76296
C         19.84300        22.76651         0.61971
C         21.00890        24.88805         0.93666
C         19.80374        25.60075         0.96534
C         20.99680        27.81535         0.59272
C         19.83270        27.10044         1.22689
C         20.95841        29.14555         0.34437
C         19.75676        29.93081         0.51908
C         20.97250        32.09271         0.27788
C         19.76121        31.36346         0.38632
C         20.96579        33.47424         0.17625
C         19.76706        34.21427         0.20823
C         20.95423        36.40313        -0.41760
C         19.80908        35.69666         0.16101
C         20.87499        37.73262        -0.74231
C         19.63963        38.43493        -0.75519
O          9.09526        12.43221         1.83101
O         10.19010        18.96400         1.03066
O          3.56581        20.18424        -2.06105
O         15.93285        23.94668         2.09507
O          5.39203        20.63934         0.96022
O         13.01827        14.61560         1.68825
O          6.44001        14.78410         1.17101
O          4.94708        30.99881         2.33322
O         11.62892        21.03340        -1.77260
O          4.93459        26.02204         2.30443
O         14.88095        13.42356        -1.17887
O         14.90195        30.40409        -0.97811
O         17.48531        17.56132        -1.35193
O         19.24748        36.32939         1.35786
O         17.35734        13.38026         1.91593
O          4.27804        16.60617        -2.47203
O         12.41832        17.90552         1.43647
O         14.49504        21.09927        -1.65810
O         15.94399        28.66047         2.20411
O         13.44920        37.56148         0.68432
O          5.56771        10.08048        -1.47000
O          1.24928        11.65352         1.47764
O          5.13363        13.27875        -1.88521
O          9.33460        27.44809         2.37031
O          9.20491        23.48014        -1.44150
O          0.99635        20.01496        -1.95921
O         16.91670        10.05033         1.63640
O          7.61350        17.69735        -2.04418
O          3.46973        28.40861         2.60692
O         18.81072        15.74257         1.69144
O          1.84787        30.38710         2.61364
H          2.17325        29.66564         3.20232
O          6.15329         2.22918         1.30654
H          6.18916         2.61876         2.20392
O         16.31208         7.29988         1.95966
H         16.48179         8.15763         2.41168
O         20.02323        27.24593         2.68355
H         19.19987        26.93636         3.11846
O         11.34312        35.91359        -2.05585
H         11.27183        34.93755        -2.13500
O          1.13564        14.80979        -2.67138
H          1.96351        15.22539        -2.99628
O          2.56063        18.46098         0.96403
H          1.84676        17.90354         1.34039
O         12.42546        25.88314        -1.37502
H         12.38526        24.99340        -1.79037
O         14.24039         4.54753        -2.27434
H         14.99415         5.03590        -2.67046
O          9.91168        24.96608         2.33333
H          9.50361        25.66182         2.90706
H          1.19503         2.37255         0.95077
H         -0.95998         3.62880         0.94322
H         -0.99576         6.07135         0.68383
H         -1.00544         7.95421         0.41774
H         -1.03437        10.38093         0.49115
H         -1.02376        12.40712         0.07163
H         -1.04986        14.55555        -1.01845
H         -0.95810        16.44285        -0.32860
H         -1.08072        18.87353        -0.35271
H         -1.14241        20.92907        -0.41497
H         -1.09342        23.23272         0.33605
H         -1.08496        25.12048         0.43123
H         -1.06838        27.52331         0.63538
H         -0.93524        29.30391         0.00803
H         -0.94696        31.69848        -0.30289
H         -0.98909        33.58652        -0.49877
H         -0.94453        35.96489        -1.10268
H          0.29897        38.06138        -1.49654
H          3.65634         2.35772         0.75391
H          2.44780        39.30219        -1.59085
H          6.09017         2.80879        -0.65984
H          4.90024        39.33436        -1.38571
H          8.60835         2.32916         0.49833
H          7.34349        39.37105        -1.23588
H         11.08572         2.33083         0.29377
H          9.73834        39.44590        -1.12936
H         13.48442         2.36880        -0.36776
H         12.04795        39.52465        -1.57770
H         15.86108         2.42155        -1.16755
H         14.93759        39.08292        -1.90897
H         18.25841         2.41888        -1.58716
H         17.17039        39.34400        -1.28178
H         20.34172         3.68747        -2.05147
H         21.52305         5.84257        -2.24195
H         21.64292         8.26629        -1.84120
H         21.64065        10.22612        -1.70320
H         21.73014        12.57913        -1.11523
H         21.96266        14.33078        -0.41934
H         22.02420        16.74744        -0.38440
H         22.07245        18.71883         0.09086
H         22.05312        21.13114         0.41892
H         22.00793        23.00405         0.73200
H         21.96408        25.41670         1.05541
H         21.93096        27.26641         0.40743
H         21.85841        29.63545        -0.05445
H         21.93739        31.56938         0.29620
H         21.92700        34.00198         0.11206
H         21.88376        35.85291        -0.61959
H         21.77044        38.24796        -1.11860
H         19.61658        39.46472        -1.13967
