         234
 CSIRO Nanostructure Databank - Neutral Graphene Oxide Data Set
C          1.15109         1.96808        -0.55226
C          1.10068         3.38668        -0.80535
C          2.32115         1.31704        -0.32265
C          2.22722         4.15717        -0.79060
C          1.03331         6.42826        -0.72388
C          1.04018         7.77396        -0.63671
C          2.22102         5.62409        -1.07936
C          2.21499         8.60131        -0.99509
C          1.31049        10.58601         0.37778
C          1.49149        11.78801         0.97763
C          2.28742        10.04971        -0.57827
C          2.70807        12.56096         0.84141
C          1.73595        14.47454         2.14081
C          1.85565        15.73748         2.67937
C          2.82920        13.84380         1.48061
C          3.07161        16.46495         2.56734
C          3.15324        17.83862         3.00855
C          3.60463         2.02209        -0.41626
C          3.55670         3.51535        -0.68130
C          4.81977         1.44331         0.16768
C          4.65251         4.39062        -0.09778
C          3.53807         6.36668        -1.22741
C          3.51990         7.87282        -1.25544
C          4.80355         5.70766        -0.82967
C          4.81265         8.58536        -1.09973
C          3.64513        10.76417        -0.62630
C          3.80699        12.00803         0.15659
C          4.87095         9.98366        -0.91980
C          5.07675        12.66277         0.15581
C          4.08120        14.52704         1.42657
C          4.18566        15.85545         1.96305
C          5.19633        13.90444         0.79718
C          5.39783        16.62785         1.75197
C          4.26023        18.59474         2.77534
C          5.42837        18.04449         2.12056
C          5.99312         2.18106         0.28227
C          5.96940         3.66648         0.15823
C          7.23531         1.55234         0.52412
C          7.26860         4.37503        -0.09057
C          6.00202         6.41230        -0.90837
C          5.99959         7.82630        -1.17845
C          7.28505         5.74254        -0.67362
C          7.25458         8.53151        -1.47414
C          6.13904        10.65910        -0.87493
C          6.22994        12.02543        -0.48256
C          7.33202         9.97949        -1.25406
C          7.43953        12.73736        -0.69868
C          6.55449        14.55010         0.90413
C          6.45543        16.05439         1.08011
C          7.44007        14.13854        -0.24982
C          7.64650        16.86217         0.78774
C          6.51693        18.84694         1.84481
C          7.72791        18.30694         1.22632
C          8.48116         2.22220         0.35554
C          8.51751         3.58949        -0.06847
C          9.70019         1.52356         0.50937
C          9.74192         4.22131        -0.31745
C          8.48446         6.34701        -0.93540
C          8.55728         7.74471        -1.41898
C          9.78487         5.57850        -0.97888
C          9.81774         8.50812        -1.30357
C          8.57283        10.65368        -1.37022
C          8.60614        12.08408        -1.21247
C          9.81128         9.88824        -1.47882
C          9.90225        12.75962        -1.40890
C          8.17989        15.08422        -0.87361
C          8.44785        16.44957        -0.40052
C          9.98173        14.20203        -1.62327
C          9.71568        17.19818        -0.70852
C          8.78215        19.13323         0.61649
C          9.85367        18.55332        -0.06277
C         10.94013         2.16307         0.31001
C         10.94534         3.52552        -0.12091
C         12.16645         1.48090         0.60498
C         12.22268         4.25566        -0.25214
C         10.98606         6.43416        -0.60507
C         11.02038         7.75985        -0.94348
C         12.17400         5.75173         0.03997
C         12.33233         8.44421        -1.06886
C         11.08949        10.62454        -1.86584
C         11.10188        12.08224        -1.45865
C         12.38129         9.85368        -1.54979
C         12.35890        12.90380        -1.75947
C         11.05475        15.00619        -1.33528
C         10.97116        16.54720        -1.39210
C         12.32390        14.31374        -1.16666
C         12.21719        17.19217        -0.83350
C         11.02299        19.28707        -0.34799
C         12.23841        18.59470        -0.63188
C         13.41034         2.11800         0.57835
C         13.47618         3.52988         0.10802
C         14.58202         1.48837         1.05634
C         14.62456         4.34293         0.66724
C         13.50409         6.45749        -0.14460
C         13.54719         7.80576        -0.50422
C         14.71336         5.75874         0.12782
C         14.77394         8.53642        -0.44403
C         13.67353        10.60989        -1.38176
C         13.65660        12.12996        -1.44840
C         14.82958         9.93395        -0.74994
C         14.81327        12.80426        -0.83668
C         13.45174        14.97168        -0.77278
C         13.40648        16.42314        -0.32648
C         14.70444        14.23564        -0.49548
C         14.71811        17.15894        -0.59581
C         13.47497        19.29135        -0.57254
C         14.71899        18.61836        -0.68979
C         15.84938         2.13766         1.09540
C         15.89446         3.53355         0.55495
C         17.03340         1.47834         1.37664
C         17.18543         4.23761         0.35847
C         15.93626         6.43510         0.07404
C         15.97441         7.84676        -0.10480
C         17.24889         5.69973        -0.08426
C         17.20168         8.57197         0.09313
C         16.02062        10.65755        -0.53795
C         15.98913        12.11227        -0.60993
C         17.18790         9.96859        -0.04471
C         17.25819        12.86821        -0.46553
C         15.96366        15.02788        -0.26856
C         15.90422        16.48587        -0.50518
C         17.26617        14.33416        -0.35980
C         17.19274        17.17224        -0.72161
C         15.91429        19.33930        -0.75524
C         17.20789        18.67673        -0.87286
C         18.31215         2.20925         1.49381
C         18.37463         3.65002         1.03587
C         19.61029         1.50933         1.53860
C         19.67083         4.31466         0.83233
C         18.45856         6.44533         0.41594
C         18.44008         7.85220         0.41514
C         19.67950         5.72450         0.60799
C         19.67479         8.54439         0.59174
C         18.35689        10.73403         0.43708
C         18.49954        12.15457         0.01628
C         19.67470         9.99957         0.77489
C         19.63841        12.97008         0.53210
C         18.44890        15.02733        -0.19236
C         18.40464        16.50698        -0.15042
C         19.70037        14.38907         0.13426
C         19.67803        17.28754        -0.04924
C         18.49033        19.38891        -0.67499
C         19.66701        18.72550        -0.44366
C         20.78140         2.17218         1.36303
C         20.85060         3.59706         1.07405
C         22.08769         4.28970         1.00276
C         20.92811         6.41285         0.63329
C         20.91922         7.85747         0.55944
C         22.11880         5.65781         0.79533
C         22.11584         8.61164         0.47658
C         20.94479        10.74132         0.69293
C         20.94956        12.21428         0.84223
C         22.11179        10.01322         0.48557
C         22.16885        13.01401         0.68123
C         20.90673        15.09916         0.23258
C         20.95782        16.53697        -0.01177
C         22.12523        14.35974         0.47641
C         22.12302        17.25530        -0.17221
C         20.94858        19.38623        -0.50083
C         22.11008        18.67368        -0.37803
O         17.33194        17.73766        -2.05424
O         18.17062         3.33730         2.45688
O          3.90816         2.62979        -1.76285
O         15.18521        14.53233         0.89461
O         13.14500         3.80275        -1.28747
O          7.89516         8.01232        -2.70143
O         14.05933        11.31818        -2.59989
O          2.64126        10.92054        -1.68946
O         18.82415        17.05152         1.14263
O         12.55779         8.76319        -2.51643
O          6.65486         4.33864         1.27579
O         18.29003        12.34754        -1.40737
O          8.53039        17.34703        -1.57213
O          2.70795         8.39518        -2.34867
O         16.58268         3.46378        -0.74294
O          2.84041         5.82701        -2.40033
O          8.39894        17.19634         1.99611
O         20.04636        12.70729         1.89162
O          8.80015        14.78595        -2.09594
O         18.71927        10.46310         1.80762
O         11.91374         5.79479         1.49719
H         11.78810         6.73200         1.75862
O         13.23995        16.41003         1.13372
H         13.94833        15.81172         1.48274
O         12.33645        13.13929        -3.18804
H         12.13280        12.27392        -3.62049
O          7.18046        14.05282         2.13344
H          6.70015        14.44199         2.89441
O          9.99237         5.27478        -2.39758
H          9.88288         6.10506        -2.90968
O         10.89138        16.92984        -2.78366
H          9.94990        16.82753        -3.05312
O         17.45680         5.68949        -1.53302
H         16.94223         4.92183        -1.88169
O          4.12019         4.77399         1.21186
H          4.90625         4.97422         1.77483
O         14.38281         4.48402         2.09498
H         13.50583         4.92847         2.20200
O         11.03575        10.68780        -3.33098
H         11.38904         9.82518        -3.65648
H          0.19971         1.42076        -0.49257
H          0.11357         3.84842        -0.95068
H          2.32558         0.25909        -0.02155
H          0.12342         5.88488        -0.42735
H          0.12251         8.28492        -0.31045
H          0.41662         9.99457         0.62105
H          0.70991        12.15007         1.65870
H          0.76575        13.96532         2.20855
H          0.99135        16.21255         3.16529
H          2.27578        18.27864         3.50458
H          4.84539         0.35943         0.35892
H          4.28893        19.64896         3.08733
H          7.24638         0.46874         0.71543
H          6.46149        19.92682         2.04991
H          9.67982         0.47027         0.82535
H          8.84551        20.19481         0.90059
H         12.10803         0.44025         0.95825
H         11.07770        20.34639        -0.05539
H         14.51250         0.44643         1.40455
H         13.46250        20.38768        -0.48817
H         17.02109         0.40242         1.60868
H         15.88509        20.43516        -0.66278
H         19.61038         0.41931         1.68951
H         18.50886        20.47416        -0.86046
H         21.73144         1.61984         1.42050
H         23.02539         3.73765         1.15980
H         23.09134         6.16882         0.79641
H         23.08111         8.09633         0.39162
H         23.07380        10.53686         0.39756
H         23.14616        12.51282         0.72802
H         23.07937        14.90244         0.42681
H         23.10073        16.75489        -0.15006
H         20.97620        20.46846        -0.69311
H         23.07605        19.19127        -0.46123
