         261
 CSIRO Nanostructure Databank - Neutral Graphene Oxide Data Set
C        -11.15406         0.61876         0.66557
C        -10.22938         1.44967        -0.19132
C         -8.93397         0.68629        -0.54763
C         -7.66937         1.44743        -0.77362
C         -6.38241         0.69699        -1.05257
C         -5.07589         1.43003        -0.97748
C         -3.71853         0.71006        -1.00643
C         -2.63700         1.42685        -0.18806
C         -1.30798         0.70753        -0.12735
C         -0.05624         1.44142         0.26465
C          1.20826         0.67653         0.59799
C          2.52149         1.43813         0.54906
C          3.73564         0.75752        -0.00016
C          5.03769         1.54536        -0.07699
C          6.34418         0.84836        -0.33736
C          7.65050         1.64787        -0.28790
C          9.04776         0.99392        -0.62534
C         10.12634         1.51765         0.35159
C         11.23457         0.68484         0.72800
C        -10.00563         2.88750         0.26095
C         -8.82791         3.55968         0.20975
C         -7.55382         2.73688         0.05190
C         -6.26729         3.58165        -0.14118
C         -5.06277         2.93398        -0.77748
C         -3.77279         3.69630        -0.71858
C         -2.61667         2.92398        -0.12907
C         -1.38041         3.67995         0.29161
C         -0.09474         2.91718         0.59759
C          1.21548         3.66330         0.68453
C          2.53109         2.91843         0.73881
C          3.82485         3.72965         0.76930
C          5.07796         2.86067         0.63401
C          6.35339         3.58347         0.90271
C          7.63173         3.04295         0.29166
C          8.92826         3.78895         0.68708
C         10.10533         2.83369         0.73534
C         -8.72138         4.99003         0.78054
C         -7.49287         5.81018         0.37795
C         -6.22464         5.04472         0.22888
C         -4.94335         5.84001         0.15668
C         -3.82970         5.24887        -0.68283
C         -2.46530         5.92331        -0.49830
C         -1.33158         5.16699         0.13043
C          0.00651         5.84103        -0.03378
C          1.27033         5.06837         0.14503
C          2.60343         5.78126        -0.01672
C          3.87571         5.01093        -0.04268
C          5.28176         5.64105        -0.09472
C          6.11277         5.09938         1.09253
C          8.27144         6.06467        -0.25403
C          9.00278         4.95936        -0.32374
C         -7.49302         7.16531         0.28107
C         -6.28223         7.97455        -0.19200
C         -4.97534         7.32255         0.20572
C         -3.70788         8.11722        -0.00665
C         -2.44365         7.40958        -0.37413
C         -1.20770         8.13332         0.07277
C          0.04625         7.33221         0.15081
C          1.37443         8.04380         0.15927
C          2.65057         7.25886         0.19285
C          4.00233         7.94669         0.08398
C          5.23451         7.16489        -0.34548
C          6.51788         7.93529        -0.51433
C          7.86331         7.33246        -0.22453
C         -6.23676         9.47193         0.08020
C         -5.10353        10.20521         0.04522
C         -3.72453         9.60848         0.00756
C         -2.46046        10.35761        -0.47648
C         -1.13425         9.60364        -0.20519
C          0.08076        10.20341        -0.30095
C          1.40290         9.43818        -0.44206
C          2.70434        10.16656        -0.17940
C          3.98239         9.46267        -0.05302
C          5.27067        10.11224        -0.41379
C          6.43052         9.42783        -0.48109
C        -11.18406        -0.73186         0.57842
C        -10.10234        -1.52224         0.01000
C         -8.79789        -0.78679        -0.17592
C         -7.69560        -1.54537        -0.88570
C         -6.42042        -0.81004        -1.14275
C         -5.06133        -1.51905        -1.27010
C         -3.89422        -0.76234        -0.61366
C         -2.65690        -1.52595        -0.26102
C         -1.38183        -0.78393         0.09663
C         -0.12017        -1.54134         0.38338
C          1.21162        -0.81551         0.48265
C          2.46228        -1.53089         0.04797
C          3.74325        -0.73476        -0.08277
C          5.06382        -1.43135         0.09703
C          6.35985        -0.61937         0.00585
C          7.64134        -1.36426         0.14110
C          8.94702        -0.84834        -0.38328
C         10.08416        -1.46567         0.38145
C         11.18961        -0.70061         0.80322
C        -10.11334        -2.89596         0.00806
C         -8.90477        -3.67679        -0.15606
C         -7.63130        -2.85916        -0.13780
C         -6.34283        -3.66751        -0.32707
C         -5.08536        -2.96404        -0.74016
C         -3.81088        -3.71775        -1.03989
C         -2.55152        -2.97270        -0.69358
C         -1.33755        -3.75430        -0.26738
C         -0.11578        -3.04907         0.25842
C          1.21395        -3.77097         0.32006
C          2.48734        -3.02016         0.01356
C          3.79749        -3.78605         0.24074
C          5.09531        -2.94108         0.09760
C          6.39518        -3.64439        -0.26028
C          7.69728        -2.84571        -0.25026
C          8.90390        -3.61938         0.19355
C         10.05964        -2.90040         0.44282
C         -8.89034        -5.04467        -0.00707
C         -7.68834        -5.85171        -0.13374
C         -6.54204        -5.12817        -0.82704
C         -5.17810        -5.92593        -0.82628
C         -3.86444        -5.21961        -0.93082
C         -2.56381        -5.96192        -0.71068
C         -1.27547        -5.20495        -0.66739
C         -0.01952        -5.97560        -0.34606
C          1.23034        -5.22848         0.02082
C          2.52078        -5.94633        -0.23954
C          3.80956        -5.18491        -0.36704
C          5.09072        -5.92958        -0.18331
C          6.40837        -5.15620        -0.22123
C          7.66276        -5.92333         0.01172
C          8.97386        -5.12666        -0.03863
C         -7.68474        -7.20258         0.09431
C         -6.49011        -8.06452        -0.08427
C         -5.19261        -7.38902        -0.40267
C         -3.94079        -7.95439         0.21926
C         -2.60295        -7.27332         0.04215
C         -1.35643        -7.99891         0.49100
C         -0.03549        -7.40766         0.11393
C          1.20470        -7.77493         0.90380
C          2.50520        -7.36038         0.24806
C          3.77428        -8.07415         0.54529
C          5.07082        -7.30700         0.42253
C          6.36694        -8.06618         0.35713
C          7.62124        -7.28361         0.07484
C         -6.42572        -9.46261         0.43574
C         -5.27083       -10.15516         0.55148
C         -3.94679        -9.47929         0.62849
C         -2.67317       -10.14277         0.52212
C         -1.35967        -9.49650         0.92129
C         -0.11030       -10.32759         0.47805
C          1.14671        -9.98462         0.17793
C          2.39992       -10.07669        -0.30567
C          3.70571        -9.57103         0.28307
C          5.02863       -10.16649        -0.05814
C          6.21576        -9.51472         0.05765
O         -0.38608         1.18293        -1.15125
O          2.30247        -2.28329        -1.21819
O          2.68512         2.01112         1.88126
O          5.14677        -2.17926         1.34459
O         -2.18996         6.76940        -1.66620
O         -4.78262         6.52661         1.42042
O          6.41562        -4.40217        -1.48812
O          3.17989         5.23835        -1.27383
O          4.22410         8.74012         1.26583
O          8.02930        -2.56985        -1.70655
O         -4.51870        -5.80852        -2.10079
O          1.12959        -8.07585         2.08952
O         -5.86876        -8.13638        -1.44528
O          6.52519         5.76030         2.02068
O          1.24367        -4.72833         1.40502
O          5.84674        -7.51017         1.63055
O          5.55478         1.36985        -1.42802
O         -2.94152        -3.20447        -2.07723
O         -5.37499        -3.28322         0.67298
O          2.01460         7.73885         1.41895
O          2.44125        -7.04062        -1.17414
O         -8.56044         1.16134        -1.89180
O         -3.08206         2.07813         1.00506
O          9.42990         1.19153        -1.84701
O          0.43294         3.36497         1.87037
O         -8.18040        -0.88933         1.18775
O         -2.02152        -7.09136         1.39583
O         -5.94583         4.02063         1.22402
O          7.51474         2.83513        -1.12709
O          1.27536        -0.16699         1.78372
O          4.49473        -5.71078        -1.51646
O         -4.36012         3.35540        -2.00582
O         -3.43730         8.88371         1.23369
O         -1.08517        -3.65226         1.16233
O         -3.67352        -1.17719         0.74500
O          7.09318        -0.79409         1.31183
O         -0.70129         7.70693         1.36367
O         -5.75754         1.22130        -2.26567
O          3.55041         0.08193        -1.27435
O         -7.62316        -2.28129         1.25154
O         -4.07516        -8.35614         1.58225
O         -7.53669         2.22553         1.36748
O          5.73255         7.45904        -1.68226
O          0.63410         5.23540        -1.19186
O          0.14054        -7.08283        -1.27495
O          5.77383         2.74437         1.93475
O         -1.69087         4.60096         1.40117
O         -1.78135        -5.72164        -1.92366
O         -0.99241        -1.11337         1.46145
O         -6.94325        -4.97321        -2.14179
O         -7.32512        -1.30539        -2.23302
O          9.04423        -1.52622        -1.66756
O          3.67160        -9.01693         1.62688
O         -3.21724         0.71709        -2.34866
H         -3.96065         0.45600        -2.94330
O          8.85176         4.27040         2.02759
H          8.18709         4.99463         2.11310
O         -9.91897         5.70330         0.49558
H         -9.97213         5.86406        -0.46850
O         -4.32034         5.69105        -1.98079
H         -3.74098         5.32663        -2.68549
O          1.49133         9.16689        -1.89517
H          1.35938        10.01180        -2.37681
O         -1.28679        -9.50580         2.35817
H         -0.51861        -8.93999         2.62228
O         -6.29292         7.88129        -1.65884
H         -5.81886         7.05864        -1.92981
O          3.86625         4.31457         2.09224
H          3.87154         3.58046         2.74898
O        -10.99168         1.60135        -1.42722
H        -10.33288         1.71551        -2.15295
O          5.91875         5.01392        -1.21926
H          5.81589         5.61013        -1.99894
O         -4.77683        -1.56637        -2.67476
H         -5.60495        -1.81919        -3.14343
O          3.76092        -4.17712         1.63712
H          3.95028        -3.38864         2.19689
O         -2.54815        10.60227        -1.88538
H         -2.60270         9.74530        -2.35712
O          9.94281        -5.66081         0.85109
H         10.03834        -6.62076         0.69149
H         12.06974        -1.23324         1.19457
H         12.17468         1.18722         1.00799
H         10.90339         3.16367         1.42426
H          9.48382         4.71799        -1.28956
H          8.59031         8.07003         0.17008
H          7.36803         9.97926        -0.65247
H          5.27833        11.20889        -0.50760
H          2.75991        11.20147        -0.55977
H          0.12504        11.28619        -0.50783
H         -2.42030        11.35878         0.02149
H         -5.17133        11.29934         0.15521
H         -7.20064         9.99745         0.17122
H         -8.44711         7.70245         0.40949
H         -8.66991         4.87189         1.89649
H        -10.92388         3.45728         0.48069
H        -11.96248         1.14506         1.19472
H        -11.99794        -1.28670         1.07103
H        -11.05284        -3.43042         0.21728
H         -9.84334        -5.56713         0.17381
H         -8.59394        -7.68266         0.48979
H         -7.38294        -9.99802         0.53163
H         -5.29988       -11.23128         0.77846
H         -2.65807       -11.14884         0.07485
H         -0.23538       -11.38635         0.78738
H          2.48204       -10.31310        -1.38638
H          5.04295       -11.21422        -0.39657
H          7.13346       -10.05814        -0.21786
H          8.56712        -7.84793         0.14692
H          9.35799        -5.23128        -1.10542
H         10.96506        -3.44269         0.75725
