         732
 CSIRO Nanostructure Databank - Neutral Graphene Oxide Data Set
C         23.09829        24.66588         1.29104
C         21.89192        25.27020         0.95669
C         23.03298        27.36864         0.48360
C         21.85330        26.61212         0.57221
C         23.00758        28.78658         0.14553
C         21.79205        29.49875         0.06640
C         22.96951        31.59339        -0.27716
C         21.77722        30.88098        -0.10175
C         23.03414        33.10969        -0.22662
C         21.74075        33.84319        -0.40901
C         22.93295        35.87802        -1.06964
C         21.76223        35.19202        -0.68710
C         22.97960        37.36449        -0.93543
C         21.76269        38.04693        -1.52074
C         22.94290        40.14404        -1.23955
C         21.74925        39.40163        -1.56574
C         22.89963        41.54261        -0.87404
C         21.63185        42.23935        -0.60579
C         22.81412        44.42523        -0.71354
C         21.57051        43.58083        -0.50109
C         22.77450        45.85558        -0.16858
C         21.56638        46.54748        -0.00960
C         22.75625        48.59528         0.51185
C         21.56209        47.89567         0.35735
C         25.61422        23.42794         2.12120
C         25.57803        24.78223         1.57049
C         24.30960        25.38699         1.21765
C         25.50986        27.46875         0.61352
C         24.28305        26.74315         0.77374
C         25.49567        28.81337         0.13956
C         24.22508        29.48746        -0.04972
C         25.42262        31.59086        -0.61508
C         24.19794        30.88863        -0.31655
C         25.42172        32.92224        -1.02012
C         24.13181        33.65229        -1.12926
C         25.39203        35.84872        -1.90751
C         24.11257        35.13332        -1.49449
C         25.44077        37.36340        -1.77342
C         24.25556        38.02472        -1.42338
C         25.40879        40.18957        -1.25690
C         24.19469        39.46115        -1.31774
C         25.38780        41.68817        -1.13336
C         24.06863        42.24282        -0.68165
C         25.31722        44.38645        -0.25635
C         24.00026        43.64453        -0.11223
C         25.28904        45.86306        -0.09164
C         23.98448        46.56191         0.03490
C         25.26660        48.69585         0.39187
C         23.99310        47.94683         0.33238
C         25.28884        50.10271         0.41159
C         28.01589        23.33113         1.70170
C         26.75785        22.71508         2.18879
C         28.06159        24.84475         1.86096
C         26.76504        25.48279         1.39090
C         27.96383        27.55886         0.72847
C         26.75816        26.83734         0.90425
C         27.94801        28.88121         0.23113
C         26.71105        29.49444        -0.07661
C         27.92710        31.67009        -0.54413
C         26.70110        30.81713        -0.79681
C         27.87872        33.03862        -0.87534
C         26.64572        33.60226        -1.28959
C         27.98419        35.50182        -2.07809
C         26.63827        34.94429        -1.90086
C         27.94256        37.66810        -2.21050
C         26.65956        38.16545        -1.84821
C         27.88060        40.28542        -1.20010
C         26.63245        39.54585        -1.43361
C         27.86064        41.50103        -0.57453
C         26.56851        42.17307        -0.31789
C         27.84753        44.33525         0.19131
C         26.55768        43.61273         0.08062
C         27.80683        45.79138         0.51107
C         26.50563        46.54271         0.44811
C         27.74314        48.71507         0.44854
C         26.50858        48.01949         0.40857
C         27.72878        50.13872         0.49125
C         26.49357        50.80176         0.46631
C         30.52145        20.64386         2.58171
C         29.38361        21.16828         2.09657
C         30.57575        23.35634         1.65375
C         29.31456        22.57178         1.64412
C         30.50133        24.76962         1.27448
C         29.30977        25.45930         1.28001
C         30.40597        27.49287         0.28723
C         29.28876        26.96350         1.15854
C         30.42767        28.95038         0.05104
C         29.19481        29.62778         0.01747
C         30.40612        31.73718        -0.49663
C         29.16437        31.01920        -0.29519
C         30.40346        33.12050        -0.76474
C         29.11608        33.90065        -0.61944
C         30.41197        35.90791        -1.83795
C         29.13355        35.14806        -1.47409
C         30.37125        37.43331        -1.59499
C         29.18387        38.18820        -1.76277
C         30.41017        40.27252        -1.06317
C         29.18664        39.69226        -1.68767
C         30.34860        41.74365        -0.78867
C         29.10214        42.13781         0.02975
C         30.28524        44.38306         0.46324
C         29.02217        43.66177         0.13371
C         30.30953        45.86929         0.33141
C         29.05110        46.57803         0.35078
C         30.19237        48.70778        -0.10348
C         28.99021        47.96823         0.31444
C         30.27756        50.15781         0.23012
C         29.00320        50.90171         0.56979
C         30.26057        53.02592         0.25745
C         29.06757        52.36372         0.43017
C         33.17783        19.25990         2.95204
C         33.11910        20.72001         2.73853
C         31.77958        21.42173         2.61005
C         33.05850        23.56685         2.04487
C         31.76070        22.77773         2.00572
C         32.97897        24.82085         1.20110
C         31.76126        25.42209         0.95047
C         32.94514        27.49853         0.11179
C         31.70615        26.73329         0.27956
C         32.90566        28.88481        -0.20021
C         31.65181        29.60637        -0.23844
C         32.86560        31.71296        -0.69351
C         31.64474        31.01187        -0.48365
C         32.86230        33.12087        -0.90830
C         31.61650        33.83264        -0.99020
C         32.83805        35.95814        -1.18002
C         31.63329        35.23699        -1.25343
C         32.83119        37.40505        -1.16280
C         31.58981        38.10888        -1.27480
C         32.84299        40.23633        -0.77931
C         31.59298        39.54791        -1.03407
C         32.81974        41.64612        -0.47007
C         31.63227        42.29012        -0.23280
C         32.87539        44.39170         0.47684
C         31.59234        43.63453         0.37112
C         32.81552        45.92248         0.46637
C         31.51349        46.55141         0.19755
C         32.80208        48.71767        -0.16620
C         31.53386        47.95119        -0.23394
C         32.75274        50.16109        -0.46770
C         31.45676        50.93075        -0.26556
C         32.75012        53.08443        -0.13055
C         31.50235        52.38134        -0.01781
C         32.79164        54.50160        -0.00612
C         35.53228        19.10395         2.27050
C         34.30293        18.52925         2.76796
C         35.55403        20.58054         2.06035
C         34.30992        21.38570         2.14659
C         35.46110        23.34733         1.17369
C         34.28159        22.70139         1.73930
C         35.42531        24.73913         0.79717
C         34.19714        25.45932         0.77952
C         35.39354        27.49339         0.03242
C         34.17089        26.81280         0.30830
C         35.37319        28.87875        -0.32225
C         34.12536        29.58843        -0.41266
C         35.31019        31.69778        -0.94231
C         34.10956        30.99916        -0.68083
C         35.33473        33.11317        -1.06992
C         34.09138        33.82961        -1.03615
C         35.31120        35.97236        -1.03609
C         34.08325        35.25334        -1.07148
C         35.30296        37.39504        -0.90495
C         34.05660        38.10562        -0.93999
C         35.31435        40.20991        -0.46736
C         34.06686        39.53127        -0.76258
C         35.34982        41.64236        -0.34478
C         34.10131        42.42893        -0.62432
C         35.30385        44.50584         0.09518
C         34.12585        43.77836         0.04834
C         35.29383        45.95240         0.24249
C         34.06512        46.65051         0.21600
C         35.26850        48.84475         0.37119
C         34.00670        48.07120         0.07313
C         35.32307        50.21317        -0.26868
C         34.03140        50.94078        -0.51251
C         35.22909        53.09758        -0.19867
C         33.99855        52.40226        -0.31087
C         35.23061        54.51753        -0.05643
C         33.98413        55.19076        -0.00372
C         38.13197        16.59715         3.06670
C         36.90270        17.06971         2.76233
C         37.86549        18.90073         1.38082
C         36.71711        18.39448         2.18541
C         37.81264        20.34761         0.79915
C         36.74026        21.21446         1.39464
C         37.84065        23.25535         0.50602
C         36.64495        22.62532         0.96400
C         37.84360        24.65353         0.25154
C         36.62357        25.38358         0.36777
C         37.84157        27.44654        -0.24956
C         36.61837        26.77785         0.05278
C         37.83797        28.85459        -0.48796
C         36.59229        29.54183        -0.56430
C         37.85572        31.68387        -1.10295
C         36.56224        30.93640        -1.02428
C         37.83056        33.16077        -1.11726
C         36.56605        33.83798        -1.16294
C         37.77608        35.99220        -1.09408
C         36.55551        35.27049        -1.11322
C         37.78948        37.37349        -0.78835
C         36.53210        38.08107        -0.67493
C         37.75069        40.13506         0.09158
C         36.51284        39.46981        -0.36333
C         37.78677        41.65029         0.08778
C         36.53260        42.35849        -0.20823
C         37.78671        44.46589        -0.05575
C         36.56551        43.80198        -0.11225
C         37.81948        45.90317         0.41660
C         36.53503        46.67036         0.19917
C         37.77722        48.80360         0.16665
C         36.55495        48.06792         0.18954
C         37.78415        50.24458         0.11571
C         36.54943        50.99381        -0.03103
C         37.72720        53.15023        -0.10496
C         36.49923        52.38486        -0.13030
C         37.72854        54.53152        -0.04699
C         36.47626        55.24888         0.04441
C         37.71858        57.32252         0.49970
C         36.50619        56.62362         0.28289
C         40.87908        15.64153         3.74668
C         40.67836        16.68468         2.84640
C         39.36514        17.46095         2.86738
C         40.23623        18.45959         0.76878
C         39.16783        18.25724         1.60234
C         40.13410        20.36383        -0.13416
C         39.01094        21.06118         0.32210
C         40.20704        23.15318        -0.16608
C         39.04090        22.50229         0.29808
C         40.25111        24.56453        -0.30971
C         39.05686        25.31214        -0.11753
C         40.28760        27.40991        -0.57885
C         39.06533        26.72770        -0.31027
C         40.29324        28.83812        -0.69197
C         39.07649        29.54066        -0.63485
C         40.34074        31.70960        -0.96741
C         39.07951        31.03729        -0.50323
C         40.30276        33.10661        -1.16810
C         39.04634        33.82845        -1.16479
C         40.30662        35.98989        -1.05699
C         39.04970        35.29786        -1.49667
C         40.27778        37.35706        -0.71687
C         39.03469        38.04311        -0.59638
C         40.28998        40.21275        -0.21239
C         39.06788        39.36941         0.12213
C         40.29432        41.60815        -0.19002
C         39.06093        42.37005        -0.11101
C         40.26686        44.52815        -0.63557
C         39.02871        43.75616        -0.22349
C         40.27437        45.98353        -0.17784
C         39.05848        46.67259         0.04031
C         40.25639        48.81617         0.00878
C         39.02866        48.08949         0.07934
C         40.25810        50.24312         0.08843
C         39.00172        50.93826         0.07522
C         40.28924        53.14011         0.00607
C         38.99893        52.39362        -0.16954
C         40.25433        54.59472         0.22241
C         39.01295        55.32871        -0.22429
C         40.19495        57.42025         0.64608
C         38.95142        56.72747         0.33918
C         40.19750        58.79977         0.94157
C         43.18364        15.38708         3.03982
C         42.11934        14.98324         3.82859
C         43.03597        16.46997         2.14032
C         41.77625        17.11259         2.03760
C         42.71909        18.86862         0.51280
C         41.61253        18.18054         1.08282
C         42.65301        20.20428        -0.10153
C         41.43871        20.92378        -0.23216
C         42.68588        23.07996        -0.80331
C         41.38666        22.36127        -0.55658
C         42.70792        24.54492        -0.70670
C         41.49230        25.25377        -0.58767
C         42.74235        27.37462        -0.86515
C         41.50771        26.68203        -0.67133
C         42.74779        28.80968        -0.99374
C         41.54142        29.53382        -0.89274
C         42.76619        31.66163        -1.27988
C         41.54514        30.97123        -1.03897
C         42.73255        33.07632        -1.41790
C         41.52926        33.81350        -1.36071
C         42.74714        35.94545        -1.05782
C         41.53996        35.26729        -1.20510
C         42.79200        37.25828        -0.31422
C         41.51964        38.07848        -0.45596
C         42.78728        40.19716        -0.04975
C         41.52034        39.45536        -0.27750
C         42.78891        41.67997        -0.17725
C         41.54808        42.36003        -0.25333
C         42.75898        44.48409        -0.38968
C         41.54847        43.77486        -0.33356
C         42.71218        45.95997        -0.74300
C         41.47893        46.69377        -0.26204
C         42.70517        48.87156        -0.14112
C         41.49338        48.11792        -0.11547
C         42.71814        50.26573         0.07220
C         41.48496        50.94768         0.18353
C         42.74955        53.15301         0.39579
C         41.45742        52.39261         0.60898
C         42.70019        54.53914         0.45226
C         41.43804        55.26292         0.48115
C         42.63206        57.38523         1.03474
C         41.42701        56.70675         0.68301
C         42.58094        58.76742         1.34385
C         41.37849        59.46035         1.28584
C         45.35421        16.27496         1.27160
C         44.13019        16.98715         1.34848
C         45.19500        18.84977         0.15288
C         44.01101        18.24214         0.68416
C         45.15933        20.21345        -0.29343
C         43.90039        20.91506        -0.36492
C         45.12842        23.03604        -0.85206
C         43.92659        22.31153        -0.64380
C         45.16527        24.45472        -0.96097
C         43.94769        25.21432        -0.84025
C         45.20395        27.32742        -1.08019
C         43.95817        26.63981        -0.91700
C         45.18528        28.74145        -1.27391
C         43.99486        29.49426        -1.23711
C         45.22978        31.64401        -1.51568
C         44.01308        30.93741        -1.37760
C         45.26962        33.07781        -1.55138
C         43.98623        33.78130        -1.68777
C         45.27878        35.97266        -1.29558
C         43.98687        35.32024        -1.51072
C         45.22084        37.38047        -1.00489
C         44.05778        38.02274        -0.62098
C         45.30934        40.22404        -0.44984
C         44.08720        39.44644        -0.25195
C         45.31063        41.66386        -0.01029
C         44.00011        42.39756        -0.21568
C         45.26765        44.57026        -0.46046
C         44.00508        43.81142        -0.33684
C         45.26583        45.94746        -0.58065
C         43.99084        46.66469        -0.33807
C         45.22915        48.93507        -0.40962
C         43.98802        48.14116        -0.16920
C         45.23265        50.34078        -0.00435
C         43.98027        51.02099         0.14552
C         45.25176        53.17856        -0.01968
C         43.96593        52.41922         0.24772
C         45.21547        54.57700         0.53775
C         43.95450        55.36775         0.28898
C         45.04632        57.19328         1.62284
C         43.87926        56.66412         1.05747
C         46.45269        16.80851         0.63790
C         47.63175        18.77136        -0.33573
C         46.42157        18.13201         0.12418
C         47.61660        20.16088        -0.64928
C         46.37056        20.85097        -0.66081
C         47.68080        23.01829        -1.21172
C         46.34257        22.25353        -1.08799
C         47.66075        24.47429        -1.05684
C         46.42218        25.16417        -1.06031
C         47.68879        27.30503        -1.09969
C         46.42566        26.59740        -1.09764
C         47.70258        28.69304        -1.24819
C         46.46246        29.39674        -1.57415
C         47.78278        31.61152        -1.52807
C         46.48860        30.90906        -1.70832
C         47.75793        33.08340        -1.68357
C         46.46787        33.80623        -1.56304
C         47.74277        35.91389        -1.14596
C         46.49042        35.24678        -1.41371
C         47.78399        37.38554        -1.13532
C         46.46249        38.15575        -1.16129
C         47.76087        40.21578        -0.69261
C         46.49138        39.56930        -0.76179
C         47.78640        41.67460        -0.74667
C         46.48118        42.40841        -0.60792
C         47.76204        44.50654        -0.42794
C         46.53256        43.86952        -0.44824
C         47.82947        45.96507        -0.58038
C         46.52174        46.70583        -0.73983
C         47.78162        48.86869        -0.12719
C         46.54651        48.20187        -0.57666
C         47.73372        50.25723         0.15437
C         46.48096        50.99920         0.13168
C         47.66882        53.06761         0.73563
C         46.48969        52.40134         0.35863
C         47.63187        54.46736         1.06714
C         46.35239        55.18510         1.04405
C         46.25495        56.50763         1.59160
C         50.04924        18.72169        -0.65546
C         48.85753        18.06591        -0.41233
C         50.09688        20.12735        -0.80125
C         48.87044        20.85746        -0.84262
C         50.14126        22.98978        -0.89984
C         48.91502        22.27240        -0.96134
C         50.14609        24.41917        -0.94015
C         48.91489        25.16351        -0.97155
C         50.19030        27.30043        -1.11957
C         48.93304        26.58149        -0.99612
C         50.18399        28.70641        -1.23399
C         48.93969        29.47037        -0.90362
C         50.21955        31.63195        -1.12209
C         48.95211        30.93128        -1.31363
C         50.24160        33.05577        -0.98904
C         49.04224        33.82041        -1.36073
C         50.15071        35.88970        -0.55924
C         48.96234        35.23897        -0.97907
C         50.07698        37.29707        -0.02704
C         48.95261        38.08584        -0.61860
C         50.19555        40.20363        -0.24942
C         48.96390        39.48493        -0.54720
C         50.21398        41.63731        -0.23404
C         49.03406        42.38674        -0.46159
C         50.22106        44.50264        -0.05586
C         49.01494        43.79140        -0.32647
C         50.21744        45.93886         0.09642
C         49.03386        46.68126        -0.11812
C         50.18786        48.74471         0.47117
C         48.99747        48.09658         0.07504
C         50.20315        50.21962         0.50958
C         48.93063        50.96538         0.48741
C         50.10384        53.03451         1.24953
C         48.91105        52.33520         0.82141
C         50.02788        54.40615         1.49997
C         48.81844        55.11035         1.40848
C         52.59107        20.14327        -0.86511
C         51.35984        20.83496        -0.85584
C         52.61765        22.96944        -0.78302
C         51.37315        22.26045        -0.84265
C         52.62227        24.38738        -0.89889
C         51.40233        25.12191        -0.99210
C         52.70320        27.25392        -1.43487
C         51.40550        26.53757        -1.14097
C         52.62050        28.70413        -1.00089
C         51.44193        29.49028        -1.53237
C         52.64170        31.60549        -0.73985
C         51.41817        30.91849        -1.02268
C         52.64566        33.02585        -0.51118
C         51.40682        33.74453        -0.63401
C         52.56500        35.88633        -0.10191
C         51.37445        35.18647        -0.44612
C         52.57679        37.29416        -0.00421
C         51.38492        38.04079        -0.08513
C         52.64186        40.17883         0.04937
C         51.38041        39.46585        -0.04281
C         52.65310        41.62959         0.07719
C         51.43605        42.34763        -0.00108
C         52.65159        44.46665         0.40460
C         51.43674        43.77810         0.10293
C         52.65262        45.88235         0.61204
C         51.43030        46.60715         0.46065
C         52.58708        48.65385         1.16194
C         51.40465        48.01767         0.68021
C         52.42832        50.02128         1.77407
C         51.42318        50.89445         1.05465
C         52.48447        52.87231         2.00431
C         51.34050        52.31181         1.48033
C         53.79931        20.82422        -0.72087
C         55.05240        22.92746        -0.17117
C         53.83203        22.21616        -0.62258
C         55.05179        24.40782        -0.28451
C         53.95886        25.07613        -1.09266
C         55.07526        27.27276        -0.57409
C         53.93427        26.57210        -0.88680
C         55.13325        28.71899        -0.60405
C         53.85794        29.43955        -0.60033
C         55.10451        31.58457        -0.55838
C         53.87069        30.90648        -0.65493
C         55.09749        33.00955        -0.36322
C         53.85919        33.70033        -0.25002
C         55.09267        35.89292        -0.02077
C         53.81897        35.12702         0.26000
C         55.12107        37.26549        -0.01147
C         53.85462        38.00137         0.38614
C         55.06536        40.20491        -0.19712
C         53.82468        39.47064         0.06201
C         55.10677        41.63709         0.12705
C         53.87542        42.33240         0.25439
C         55.10216        44.41649         0.76658
C         53.88086        43.74897         0.48450
C         55.10558        45.82426         1.10428
C         53.85906        46.54759         0.99281
C         54.96597        48.56758         1.89866
C         53.79874        47.94024         1.31535
C         54.90357        49.94064         2.30403
C         53.71962        50.74406         2.03686
C         53.68383        52.10985         2.18215
C         57.53876        22.92684        -0.13740
C         56.37513        22.27251         0.02721
C         57.59607        24.34617        -0.68526
C         56.37967        25.11111        -0.20182
C         57.62161        27.31433        -0.55699
C         56.36261        26.59096        -0.27991
C         57.59109        28.67870        -0.70787
C         56.33679        29.41338        -0.65952
C         57.57336        31.58230        -0.62042
C         56.34752        30.86721        -0.62038
C         57.57339        33.01179        -0.43209
C         56.35054        33.68629        -0.25442
C         57.65648        35.88016         0.02470
C         56.34569        35.12414         0.06573
C         57.59845        37.33888        -0.16476
C         56.37423        37.98525        -0.13329
C         57.60848        40.20016        -0.12994
C         56.36267        39.44929        -0.32133
C         57.57516        41.59375         0.08081
C         56.33122        42.30777         0.24640
C         57.55868        44.34694         0.87862
C         56.33727        43.69175         0.65260
C         57.57415        45.60121         1.73186
C         56.28135        46.45321         1.58922
C         57.15263        48.43078         2.92746
C         56.16114        47.79635         2.11488
C         57.05837        49.74124         3.38164
C         55.95924        50.51708         3.02447
C         60.10714        24.46116        -0.35998
C         58.88117        25.13280        -0.45444
C         60.09681        27.26846        -0.39517
C         58.87363        26.55538        -0.48574
C         60.06243        28.78602        -0.27813
C         58.87357        29.40167        -1.02547
C         60.02700        31.59187        -0.84355
C         58.82415        30.89895        -0.78083
C         60.04222        33.03643        -0.75871
C         58.83081        33.73908        -0.49723
C         60.06058        35.89002        -0.58889
C         58.87276        35.15533        -0.37653
C         60.05772        37.35507        -0.48709
C         58.84062        38.06159        -0.32549
C         60.06319        40.22362        -0.29681
C         58.84137        39.49326        -0.23650
C         60.03318        41.66749        -0.15823
C         58.80020        42.32809         0.12095
C         59.97612        44.47475         0.34348
C         58.77625        43.72039         0.46067
C         59.98078        45.86560         0.78074
C         58.89806        46.34711         1.56164
C         60.33403        48.22453         2.27896
C         59.17416        47.45063         2.37678
C         61.30513        25.16772        -0.24978
C         61.29710        26.56398        -0.25327
C         61.31484        29.50395        -0.73950
C         61.26742        30.82748        -0.98814
C         61.23283        33.78209        -0.93506
C         61.24014        35.16496        -0.88015
C         61.25544        38.10663        -0.56323
C         61.26079        39.49074        -0.46930
C         61.20064        42.45592        -0.27127
C         61.16036        43.82788        -0.06079
C         61.13199        46.67034         0.62206
C         61.29072        47.85878         1.32857
O         37.32284        31.09394        -2.31353
O         28.50124        22.80381         0.43329
O         56.49345        25.87144         1.02207
O         44.03706        47.23923         1.02301
O         25.86343        35.21028        -3.12432
O         30.86559        43.74601         1.65044
O         30.76821        26.71875        -0.88204
O         54.66762        23.81477         0.97545
O         46.48533        30.05662        -2.90700
O         57.09608        35.42685         1.31171
O         34.84641        50.40532        -1.62897
O         31.88849        50.52633        -1.59853
O         39.99414        19.02062        -0.49381
O         46.95589        42.06509        -1.93339
O         40.26793        44.63444        -2.06465
O         37.40644        19.19703         0.01557
O         43.52125        39.70144         1.13639
O         43.89771        34.67924        -2.82794
O         47.20960        37.92608        -2.38428
O         51.29303        50.74327        -0.38196
O         55.62761        39.87093        -1.53953
O         23.73446        34.04435        -2.44988
O         58.26782        47.73992         3.41360
O         37.61951        40.88227         1.34971
O         41.84705        22.62807        -1.93403
O         25.49550        45.24053        -1.43128
O         45.85589        48.79956        -1.73024
O         27.00897        46.02837         1.73171
O         32.50850        21.41828         3.89965
O         26.32746        42.55032         1.08300
O         48.61823        33.58752        -2.75628
O         36.67162        21.14801         2.86570
O         32.93805        45.15358         1.71283
O         46.95309        22.52247        -2.38957
O         28.00728        36.53690        -3.02832
O         29.93980        50.40089         1.61953
O         30.69194        48.27199        -1.38933
O         52.87353        28.90139         0.40428
O         39.87024        52.74846        -1.33851
O         47.32673        46.35559        -1.91402
O         29.24583        40.11807        -3.12600
H         30.00872        39.65389        -3.53508
O         33.23136        24.02883         3.41859
H         33.13946        23.22858         3.99272
O         49.76182        37.15641         1.42456
H         50.56517        36.79817         1.86094
O         39.44036        18.39548         3.98628
H         39.53512        17.87265         4.80960
O         22.98685        44.53178        -2.14565
H         23.87167        44.94537        -2.30138
O         59.12946        29.20361        -2.44643
H         58.39052        29.60777        -2.94687
O         45.31023        53.30614        -1.48549
H         46.18156        53.69142        -1.71650
O         41.19719        52.39565         2.05341
H         41.93214        51.91760         2.49226
O         39.18471        55.47115        -1.67937
H         39.39354        54.56809        -2.02308
O         35.19250        49.14692         1.80913
H         35.12373        48.29461         2.29075
O         28.13795        25.12270         3.30737
H         27.28399        24.84624         3.70541
O         52.84117        27.21960        -2.92193
H         52.12193        26.65082        -3.27481
O         53.88112        37.93919         1.86162
H         53.85275        36.97678         2.09767
O         29.56024        27.47389         2.50441
H         29.05702        26.90366         3.13333
O         29.23591        41.59115         1.35629
H         28.48410        41.92326         1.89361
O         39.07812        35.36923        -2.98192
H         38.33759        34.81753        -3.31472
O         43.98078        55.76882        -1.13227
H         44.78374        56.31448        -1.26858
O         30.19485        42.44503        -2.07072
H         29.78929        41.80808        -2.71503
O         23.74809        43.54030         1.31237
H         24.50686        43.04660         1.70396
O         51.81765        49.78472         3.09639
H         52.46686        49.28686         3.63731
O         53.78439        35.04145         1.74343
H         54.63064        34.63137         2.02998
O         22.94765        37.61583         0.52095
H         22.86105        38.58584         0.64455
O         38.97010        31.31586         0.93948
H         39.78520        30.98332         1.37145
O         42.61757        45.99715        -2.19177
H         41.76076        45.50900        -2.41031
O         54.33593        24.87103        -2.49622
H         53.98354        25.63330        -3.01278
O         23.49763        33.42038         1.13617
H         22.79432        33.14903         1.76292
O         51.58370        29.62802        -2.97973
H         52.01542        28.80746        -3.31978
O         37.91122        45.76579         1.89306
H         38.00008        46.66920         2.26574
O         57.43492        24.24730        -2.13129
H         58.21906        23.78649        -2.49563
O         34.11951        42.71822        -2.07547
H         34.97489        43.15263        -2.28283
O         42.87716        36.90627         1.11609
H         42.95608        37.76296         1.60025
O         26.75201        30.46123        -2.23193
H         26.68659        31.29706        -2.74246
O         39.28111        38.97000         1.51825
H         38.88068        39.68561         2.06890
O         30.60140        35.76958        -3.28283
H         29.76815        36.08201        -3.70823
O         45.55021        41.64876         1.43406
H         44.84611        41.07563         1.82320
O         57.54439        45.10361         3.11082
H         57.70617        45.88179         3.69393
O         48.89341        29.56249         0.59335
H         49.24738        28.71910         0.95098
O         29.02954        34.32481         0.78004
H         29.06213        33.51958         1.33857
O         59.87043        29.08014         1.13085
H         60.58337        28.63922         1.63733
O         25.63369        42.24139        -2.47173
H         24.86082        42.02262        -3.03447
H         23.09372        23.61139         1.59518
H         20.95956        24.69092         1.00474
H         20.88233        27.06213         0.32754
H         20.83425        28.97894         0.19864
H         20.81091        31.40346        -0.09442
H         20.79797        33.37975        -0.08580
H         20.83564        35.77247        -0.56068
H         20.87883        37.46133        -1.80790
H         20.84438        39.94433        -1.87542
H         20.71658        41.63771        -0.50196
H         20.59716        44.06561        -0.33655
H         20.60752        46.03693        -0.17091
H         22.71870        49.66052         0.77572
H         20.60513        48.41710         0.49835
H         24.67670        22.96647         2.45969
H         24.35210        50.67484         0.39150
H         26.74985        21.67572         2.54671
H         26.46171        51.89925         0.49529
H         30.53089        19.61023         2.95416
H         28.47226        20.55637         2.04035
H         30.23156        54.12439         0.27977
H         28.14589        52.95365         0.52672
H         32.28200        18.76629         3.35275
H         31.85774        55.07233         0.07465
H         34.27222        17.45046         2.97624
H         33.95119        56.28533         0.07013
H         38.23066        15.60402         3.52993
H         36.01634        16.46521         3.00765
H         37.64207        58.36631         0.83502
H         35.57261        57.19066         0.39008
H         40.06494        15.32144         4.41325
H         39.26674        59.37958         0.89069
H         44.15034        14.87679         3.14343
H         42.24570        14.15549         4.53990
H         43.50082        59.31052         1.59809
H         41.35615        60.53706         1.50393
H         45.43075        15.27333         1.71471
H         45.01577        58.16841         2.12938
H         47.37607        16.21724         0.59621
H         47.13244        56.97387         2.05660
H         50.97403        18.13086        -0.67708
H         48.88249        16.97986        -0.25592
H         50.92726        54.96027         1.79983
H         48.82847        56.18499         1.63245
H         52.61460        19.04779        -0.92702
H         52.51883        53.93726         2.27279
H         54.73303        20.24945        -0.64452
H         54.59283        52.66586         2.45183
H         58.47842        22.38870         0.06135
H         56.38885        21.22767         0.37682
H         57.85692        50.14887         4.01394
H         55.90087        51.55707         3.36825
H         60.13878        23.36260        -0.36368
H         60.47901        49.08998         2.93740
H         62.25556        24.62420        -0.15986
H         62.25009        27.10141        -0.14925
H         62.27358        28.97027        -0.81548
H         62.18974        31.35321        -1.27313
H         62.17833        33.26465        -1.14350
H         62.18718        35.69286        -1.05356
H         62.21801        37.59170        -0.68330
H         62.22460        40.01536        -0.52031
H         62.16089        41.98892        -0.52793
H         62.09224        44.39991        -0.16173
H         61.93818        46.34147        -0.04649
H         62.19731        48.46391         1.19340
