         576
 CSIRO Nanostructure Databank - Neutral Graphene Oxide Data Set
C          5.88613        19.01780         0.05272
C          5.92016        20.50076        -0.26933
C          4.66024        21.25161         0.10221
C          5.85844        23.32217         0.80064
C          4.62725        22.52523         0.52718
C          5.78019        24.81639         0.95271
C          8.28635        14.67826         0.40442
C          8.27065        16.03788         0.34046
C          6.98519        16.77007        -0.03390
C          8.35122        19.00009        -0.08011
C          7.02098        18.29246         0.07190
C          8.33652        20.44570         0.40835
C          7.16873        21.15199         0.26924
C          8.46597        23.26625         0.39518
C          7.15752        22.59820         0.60207
C          8.59003        24.56308        -0.04921
C          6.71998        25.66382         0.42263
C          8.40746        27.54545         0.55963
C          7.13934        26.97539         0.81485
C          8.48038        28.94341         0.67258
C         10.75663        10.32516         0.40978
C         10.66166        11.73788         0.24318
C          9.51731        12.40751         0.64133
C         10.78380        14.59225         0.75803
C          9.44849        13.87884         0.98858
C         10.77731        16.10161         0.71457
C          9.47771        16.82882         0.58511
C         10.75468        18.89927         0.83305
C          9.49417        18.18984         0.47127
C         10.79766        20.36619         1.08824
C          9.56441        21.12574         0.79942
C         10.91311        23.23113         0.67829
C          9.65015        22.51743         0.69834
C         10.88976        24.67252         0.52519
C          9.75269        25.36222         0.18535
C         10.95831        27.58436         0.55469
C          9.69437        26.87743         0.02008
C         10.95371        28.99754         0.75052
C          9.66582        29.72739         0.58822
C         10.44426        32.11399         0.53783
C          9.46423        31.08807         0.28592
C         10.78723        33.27272        -0.09644
C         13.41945         6.09819         1.03277
C         13.35077         7.61220         1.14531
C         12.03841         8.26050         0.76029
C         13.23087        10.32075         0.00714
C         11.97897         9.59395         0.38353
C         13.14191        11.74828        -0.40288
C         11.76165        12.48856        -0.49588
C         12.74784        14.75664        -0.69337
C         11.83348        13.95250        -0.06939
C         13.04427        16.14608        -0.37382
C         11.96107        16.80544         0.17241
C         13.29069        18.95672         0.15386
C         11.96899        18.25149         0.26944
C         13.40261        20.33614         0.75120
C         12.13900        21.11894         1.23256
C         13.36957        23.23866         0.41781
C         12.13173        22.54928         0.73990
C         13.29704        24.62703         0.15301
C         12.16944        25.35625         0.86813
C         13.40209        27.53072         0.94748
C         12.16458        26.86393         0.74541
C         13.43900        28.94197         0.97681
C         12.19541        29.63866         1.02560
C         13.40880        31.79594         0.91046
C         12.29901        31.06759         1.21833
C         13.29040        33.27730         0.84601
C         12.16218        33.93585         0.01157
C         13.34085        36.14100         0.33489
C         12.14165        35.42723         0.22638
C         13.36475        37.60114         0.32339
C         15.88554         6.05524         0.43817
C         14.55370         5.41055         0.81149
C         15.79320         7.53033         0.80177
C         14.52255         8.22486         0.35573
C         15.69171        10.44713         0.60101
C         14.54818         9.73250         0.42818
C         15.68542        11.93275         0.38747
C         14.41093        12.53089        -0.20223
C         15.67395        14.58500        -0.80223
C         14.59907        13.76074        -0.95483
C         15.55631        16.05685        -1.16899
C         14.34840        16.80950        -0.54529
C         15.85169        18.79884        -0.01750
C         14.48189        18.13667        -0.17587
C         15.85951        20.33402        -0.07531
C         14.62667        21.08784         0.33817
C         15.67945        23.25458        -0.42190
C         14.57670        22.55049         0.10816
C         15.61727        24.66052        -0.67139
C         14.33063        25.27035        -0.55977
C         16.04344        27.48030         0.74102
C         14.71446        26.86193         1.24466
C         15.89100        28.99549         0.60995
C         14.71164        29.65358         0.92025
C         15.90746        31.91586         0.65335
C         14.73387        31.14637         1.19814
C         15.85239        33.26896         0.54751
C         14.58932        34.01861         0.73947
C         15.83521        36.19845         0.80285
C         14.57928        35.45901         0.43556
C         15.82102        37.66428         0.44617
C         14.52873        38.30750         0.35406
C         18.30540         6.14503         1.21649
C         17.11480         5.42775         1.05929
C         18.31487         7.59315         1.07276
C         17.01721         8.30795         1.15483
C         18.24854        10.50669         0.73929
C         16.95303         9.83579         1.23414
C         18.21128        11.90245         0.19765
C         16.93675        12.64321         0.01303
C         18.15048        14.48842        -1.24907
C         16.92849        13.93246        -0.49676
C         18.11189        16.04423        -1.53202
C         16.90481        16.72252        -0.91695
C         18.16356        18.95591        -1.29024
C         16.87051        18.17281        -0.96061
C         18.23135        20.37820        -0.99732
C         17.00987        21.10530        -0.61525
C         18.11657        23.31420        -1.40441
C         16.76393        22.50368        -1.17699
C         18.07636        24.74338        -0.84673
C         16.88396        25.41606        -0.72264
C         18.22623        27.60296        -0.37101
C         16.85444        26.94047        -0.50988
C         18.23264        29.01139        -0.12631
C         17.09284        29.70899         0.27820
C         18.33076        31.91383        -0.03175
C         17.21512        31.17044         0.66062
C         18.28380        33.33026        -0.11742
C         16.97245        34.05647        -0.10567
C         18.26682        36.19620         0.21299
C         17.08930        35.49497         0.34122
C         18.28200        37.65581         0.29149
C         17.00533        38.34248         0.32157
C         20.78901         6.16782         1.20153
C         19.56220         5.47878         1.34565
C         20.76632         7.58900         0.94485
C         19.50260         8.26755         0.87914
C         20.74269        10.40942         0.40403
C         19.44163         9.64936         0.27570
C         20.68468        11.87452         0.17245
C         19.45039        12.42089        -0.52287
C         20.70687        14.59401        -0.91608
C         19.40698        13.97878        -0.46507
C         20.69454        16.10513        -0.82928
C         19.40299        16.79641        -1.23900
C         20.66914        18.92189        -1.01951
C         19.41122        18.16041        -1.28060
C         20.70149        20.40719        -1.08826
C         19.42657        21.12435        -0.97250
C         20.65101        23.24698        -1.12771
C         19.37292        22.53207        -1.02001
C         20.65045        24.73971        -0.94255
C         19.38199        25.37237        -0.38370
C         20.69011        27.52049        -0.47891
C         19.42663        26.88034        -0.47986
C         20.68754        28.98913        -0.70365
C         19.55103        29.74833        -0.06373
C         20.64476        31.97400        -0.82195
C         19.45731        31.21090        -0.43679
C         20.68857        33.37975        -0.46898
C         19.49564        34.06101        -0.23244
C         20.70821        36.21721        -0.15831
C         19.52187        35.51699        -0.07048
C         20.73999        37.65359         0.02534
C         19.47950        38.33767         0.18767
C         23.25504         6.17371         0.98381
C         22.03813         5.49109         1.21200
C         23.22316         7.60465         0.80145
C         21.97929         8.30081         0.78069
C         23.21573        10.48559         0.53234
C         21.93122         9.75273         0.60170
C         23.24663        11.91978         0.07809
C         21.95025        12.63055        -0.11021
C         23.17445        14.55731        -1.25928
C         21.88871        13.91591        -0.85795
C         23.22132        16.04078        -1.29858
C         21.90854        16.73899        -1.54265
C         23.23998        18.89764        -1.31452
C         21.96531        18.18619        -1.10453
C         23.18450        20.37494        -1.37716
C         21.89554        21.07066        -1.14399
C         23.19980        23.28061        -0.91032
C         21.90941        22.51513        -0.69929
C         23.19217        24.69524        -0.80376
C         21.94385        25.41705        -0.69007
C         23.20970        27.53643        -0.45264
C         21.92091        26.80425        -0.55922
C         23.22865        29.03103        -0.58644
C         21.96308        29.72791        -0.94881
C         23.25564        31.92446        -0.71540
C         22.00830        31.22939        -1.00593
C         23.26343        33.33425        -0.51449
C         21.98922        34.06766        -0.14057
C         23.24796        36.20669        -0.09871
C         21.98713        35.52423        -0.58937
C         23.23236        37.63773         0.11991
C         21.95829        38.32597         0.06706
C         25.71669         6.15804         0.65882
C         24.50476         5.48510         0.91872
C         25.67036         7.57904         0.49742
C         24.46687         8.28824         0.58943
C         25.65886        10.43453         0.31827
C         24.47562         9.72623         0.40227
C         25.70455        11.81286        -0.09113
C         24.44878        12.30641        -0.77786
C         25.72571        14.55340        -1.00633
C         24.46400        13.78899        -1.15376
C         25.69373        15.97618        -1.46048
C         24.40405        16.72760        -1.36984
C         25.69150        18.96492        -1.43327
C         24.41207        18.19736        -1.42175
C         25.67142        20.32429        -0.74145
C         24.46284        21.13114        -1.19777
C         25.65397        23.26799        -0.84087
C         24.42338        22.58468        -0.90159
C         25.65241        24.66708        -0.91318
C         24.43846        25.39667        -0.86253
C         25.64786        27.56718        -0.91984
C         24.47512        26.84015        -0.76328
C         25.70412        29.01641        -0.84171
C         24.49998        29.74995        -0.77119
C         25.72360        31.83318        -0.53900
C         24.48930        31.16831        -0.70882
C         25.77872        33.34258        -0.50312
C         24.45087        34.04805        -0.34650
C         25.64203        36.12221         0.49508
C         24.42221        35.46893        -0.03981
C         25.64582        37.63531         0.78979
C         24.40364        38.33160         0.41348
C         28.21249         6.18534         0.42311
C         26.98996         5.49206         0.56683
C         28.21255         7.61876         0.33702
C         26.91407         8.33618         0.09451
C         28.17117        10.48942         0.46254
C         26.91567         9.71438         0.73318
C         28.07564        11.97625         0.66891
C         26.85766        12.56431        -0.04694
C         28.17469        14.63044        -0.60872
C         26.86369        13.93509        -0.53489
C         28.23901        16.03356        -1.13477
C         26.98717        16.74006        -1.56250
C         28.17288        18.91463        -0.77995
C         26.99509        18.24810        -1.48379
C         28.18809        20.42326        -0.93156
C         26.97050        21.08206        -0.89139
C         28.20608        23.27000        -0.88150
C         26.93915        22.53820        -0.51904
C         28.20631        24.64734        -1.09521
C         26.91330        25.35857        -1.24371
C         28.19060        27.56730        -1.32190
C         26.89205        26.87040        -1.28024
C         28.24156        29.04316        -1.18257
C         26.94715        29.70984        -0.82407
C         28.14001        31.67760         0.09890
C         26.92349        31.09182        -0.51942
C         28.06839        33.06153         0.65533
C         26.80043        33.84014         0.50942
C         28.11339        35.89158         0.46222
C         26.88778        35.31752         0.49887
C         28.14545        38.10902         0.80669
C         26.87345        38.45005         1.15293
C         30.67880         6.24882         0.30966
C         29.48487         5.52787         0.38794
C         30.66133         7.68981         0.32694
C         29.39213         8.35897         0.33153
C         30.62398        10.55139         0.39136
C         29.36611         9.82387         0.34221
C         30.57839        12.00894         0.41154
C         29.37604        12.67543         0.38500
C         30.60469        14.81853        -0.05335
C         29.29686        14.17885         0.31584
C         30.64878        16.10834        -0.55551
C         29.45355        16.83388        -0.86710
C         30.73863        18.91800        -1.02081
C         29.48141        18.20783        -1.03281
C         30.70236        20.40431        -1.06875
C         29.42919        21.13615        -0.90932
C         30.66996        23.33218        -0.82786
C         29.45018        22.57177        -0.88848
C         30.69853        24.73722        -0.99112
C         29.42072        25.36655        -1.28832
C         31.10671        27.78422        -1.19888
C         29.27358        26.75689        -1.64028
C         30.87140        29.07684        -0.72290
C         29.57842        29.78269        -0.89481
C         30.69834        31.82161         0.26245
C         29.46985        31.02462        -0.03572
C         30.66098        33.14819         0.75121
C         29.34748        33.77428         1.03343
C         30.56048        36.14088         1.26707
C         29.31544        35.30680         1.05984
C         30.57995        37.64724         1.20990
C         29.48677        38.50284         1.22561
C         33.12676         6.32148         0.15094
C         31.96701         5.60114         0.22179
C         33.13482         7.76258         0.21709
C         31.86117         8.43320         0.33441
C         33.11267        10.57692         0.79972
C         31.83054         9.86882         0.41994
C         33.10230        12.06474         0.56104
C         31.83632        12.75546         0.45469
C         33.01348        15.01666         0.51267
C         31.81763        14.12822         0.26554
C         33.18878        15.99940        -0.64344
C         31.92624        16.75025        -0.92052
C         33.19868        18.90246        -0.61855
C         31.93810        18.22551        -1.02800
C         33.19244        20.41040        -0.43203
C         31.96386        21.17029        -0.83540
C         33.18502        23.31072        -0.34861
C         31.86798        22.57984        -0.28850
C         33.15778        24.72469        -0.28618
C         31.94694        25.47058        -0.65764
C         33.09317        27.56494         0.16323
C         32.03610        26.88154        -0.60645
C         33.19254        29.03813         0.10168
C         31.98882        29.76367        -0.14180
C         33.16799        31.92353         0.19322
C         31.92877        31.16007         0.10141
C         33.11761        33.30803         0.65864
C         31.87244        33.90611         0.90885
C         33.14237        36.10215         1.13508
C         31.86782        35.35516         1.27284
C         33.07319        37.53540         1.28637
C         31.89864        38.23219         1.36151
C         34.32441         8.49408         0.11589
C         35.53568        10.65191         0.20240
C         34.37135         9.91052         0.29332
C         35.57474        12.07507         0.50454
C         34.29146        12.76245         0.59610
C         35.60670        14.91161         0.70450
C         34.27314        14.22357         0.99974
C         35.66420        16.05467        -0.04316
C         34.51940        16.69748        -0.81365
C         35.71694        18.91347        -0.55547
C         34.46239        18.18922        -0.57327
C         35.71087        20.46693        -0.44758
C         34.43935        21.16935        -0.35833
C         35.64973        23.26759         0.01133
C         34.40663        22.58456        -0.23065
C         35.61536        24.68181         0.17403
C         34.38418        25.38119         0.04315
C         35.60897        27.54068         0.63230
C         34.36142        26.78780         0.45211
C         35.59043        28.95074         0.73450
C         34.39455        29.67923         0.43358
C         35.65642        31.84979         0.86615
C         34.48692        31.13881         0.32053
C         35.57585        33.27143         0.96622
C         34.37312        33.98888         0.86011
C         34.33380        35.42470         1.00818
C         36.76489        12.75396         0.68017
C         38.16665        14.84899         1.31914
C         36.81040        14.15303         1.31542
C         38.61136        15.84400         0.50008
C         36.88805        16.78628        -0.34300
C         38.18779        18.90542         0.03258
C         36.98510        18.18770        -0.26107
C         38.10891        20.33898         0.23110
C         36.93814        21.10605         0.04663
C         38.03207        23.26763         0.59418
C         36.87034        22.53852         0.24528
C         38.03530        24.68376         0.66560
C         36.82318        25.40037         0.50346
C         38.04072        27.52885         0.97004
C         36.82177        26.82035         0.68828
C         38.00470        28.92834         1.15561
C         36.81188        29.66690         1.01753
C         36.79033        31.09287         1.16409
C         39.59123        16.87285         0.74882
C         40.62894        19.02089         0.61542
C         39.43595        18.22062         0.41329
C         40.59886        20.38019         0.77172
C         39.27717        21.03564         0.81783
C         40.52429        23.28406         1.05204
C         39.24620        22.54068         0.98692
C         40.49930        24.65949         1.04511
C         39.26601        25.39881         0.94014
C         39.25250        26.78486         1.06751
C         41.78402        21.16971         0.99675
C         41.74986        22.52997         1.13075
O         30.36816        27.33865        -2.28675
O         14.81859        26.01392         2.13439
O         12.34189        18.95971        -0.97875
O         16.12982        22.30988        -2.41548
O         17.11349        18.71269        -2.31454
O         20.67099        24.15502        -2.27171
O         29.10813        34.49891         2.26002
O         11.16276        15.36323         1.94416
O         33.34354        27.02711         1.50107
O         20.82229        16.30645         0.56040
O         23.21102        28.39703         0.74762
O         16.14212         7.72143         2.18788
O         11.19782        31.77812         1.67702
O         31.19618        35.71343         2.51910
O         10.72155        19.37777         2.20072
O         28.97613        29.82122        -2.20936
O         26.49082        18.93012        -2.65665
O         16.90117        20.91612         0.83281
O         21.15761        29.22954        -2.07079
O         23.81689        13.98098        -2.47084
O         21.38715        18.46183         0.20194
O         13.82993        33.87214         2.07260
O         39.01187        21.64047         2.13364
O         18.57893        11.62339         1.60493
O         32.96780        19.56804         0.74995
O         21.24533        12.73593         1.18174
O         13.25762        10.71508        -1.44211
O         23.96575        20.87767        -2.54286
O         23.46987        11.61292         1.47228
O         31.53461        20.97243        -2.19436
O         32.56829        15.82417        -1.94556
O         26.75360        26.06160        -2.52341
O         14.43832        20.55694         1.74767
O         25.38387        36.64237         1.85682
O         14.75757        12.69124         1.22087
O         13.51585        14.19075        -1.72025
O         28.24421        37.11483        -0.19270
O          7.48292        25.15976        -0.65871
O          6.60215        22.80451         1.98122
O         34.04934        31.68910        -0.96199
O         37.96351        16.02526        -0.75012
O         21.26765        31.73414        -2.14579
O         32.59810        15.84135         1.59931
O         28.59286        14.87604        -1.97792
O         26.37580        16.20221        -2.75672
O         35.88282        19.78322        -1.74244
O         28.65707        30.75619         1.15261
O         27.02714        33.10208         1.71645
O         36.63254        13.92825         2.73057
H         35.66819        13.77483         2.91291
O         12.26036        21.29209         2.66546
H         13.21526        21.43556         2.86292
O         26.82505         8.54518        -1.34824
H         26.81383         7.66665        -1.78214
O         22.00791        35.54561        -2.04374
H         22.00560        36.48225        -2.33160
O         16.31657        18.42290         1.30161
H         15.94986        19.07681         1.94088
O         15.85884        36.16065         2.28628
H         15.27387        35.43075         2.58855
O         14.88469        31.24538         2.67563
H         14.58201        32.15568         2.91780
O         17.96140        16.21990        -2.99745
H         17.74664        17.18327        -3.13162
O         27.81975        12.17823         2.11070
H         27.98643        13.13937         2.28609
O         11.36998        12.46479        -1.88546
H         11.76697        11.65682        -2.28467
O         16.96417        27.25309         1.83913
H         16.50347        26.65310         2.47719
O         12.70978        33.74423        -1.34984
H         12.15315        34.25368        -1.97608
O         18.24753        23.46813        -2.83169
H         17.41588        23.03145        -3.19972
O         16.82217        10.14800         2.63178
H         17.22872        11.03660         2.77140
O          8.58177        19.08091        -1.53530
H          9.49741        19.40241        -1.68476
O         19.56816        11.91209        -1.86810
H         18.93101        12.40378        -2.44997
O         16.06296         5.86785        -0.99045
H         15.38405         6.42930        -1.43678
O         34.09358        14.14309         2.43981
H         33.47354        14.91755         2.63728
O         19.20949         9.36246        -1.13922
H         19.40052        10.19135        -1.65544
O         25.46912        20.09004         0.68127
H         25.84830        20.86514         1.16258
O         21.99172        34.10929         1.31911
H         22.11554        33.20019         1.66368
O         26.92537        22.50802         0.98460
H         27.82220        22.23122         1.27564
O         19.17409        14.34883         0.89794
H         19.81978        15.07412         1.14351
O         33.18438        10.43105         2.26483
H         32.49312        11.00746         2.65470
O          6.01602        20.57167        -1.73157
H          6.82046        20.05898        -1.98596
O         31.58976        22.40477         1.14550
H         31.75865        23.25989         1.59560
O         15.31038        16.18376        -2.59395
H         16.10607        15.84540        -3.06943
O         27.91057        18.67463         0.64458
H         28.70448        18.93929         1.15596
O         24.32278        11.53081        -1.99740
H         24.13341        12.16359        -2.73007
O          9.17637        13.85437         2.42033
H          9.79570        14.50721         2.83145
O         19.93384        29.76158         1.35144
H         19.17799        30.15310         1.86268
O         21.76204        22.45405         0.76094
H         22.43323        21.83722         1.12263
O         14.32163         7.90652        -1.05120
H         13.81911         8.63607        -1.47716
O         14.00731        26.42218        -1.20104
H         14.78056        26.78994        -1.70216
O         21.65657        16.68974        -2.96583
H         22.46610        16.38942        -3.43073
O         17.61394        31.13966         2.08446
H         16.78621        30.97998         2.60857
O         19.45250        25.08037         1.04960
H         18.79384        25.64883         1.50771
O         13.53122         7.96369         2.53968
H         12.97787         7.37187         3.08890
O         18.04500        13.83260        -2.53762
H         18.13538        14.52057        -3.24174
O         26.34909        33.76416        -1.79069
H         25.70557        33.53319        -2.49431
O         28.93257        14.67519         1.65574
H         29.76731        14.83296         2.14986
O         12.32733        25.09593         2.29517
H         13.26120        25.30998         2.54462
O         34.93794        16.56048        -2.20158
H         34.11369        16.39340        -2.72456
O         16.54691        34.15136        -1.52101
H         17.28817        34.54932        -2.02607
O         26.86561         9.54202         2.17443
H         27.00046        10.43444         2.57309
O         16.29555        27.53119        -1.72234
H         16.88259        27.29076        -2.47100
O          9.68592        27.13532        -1.41294
H          8.90787        26.66311        -1.78269
O          5.88210        16.23617         0.70056
H          6.06451        16.34643         1.65607
H          4.91095        18.50666         0.09234
H          3.71002        20.72243        -0.07332
H          3.65667        23.00995         0.71830
H          5.12194        25.18119         1.75682
H          7.34223        14.13712         0.23359
H          6.78010        16.54007        -1.11741
H          6.41485        27.60975         1.35195
H          7.53353        29.49137         0.80529
H          9.86230         9.79539         0.77676
H          8.68813        11.80402         1.04813
H          8.46631        31.37719        -0.08152
H         10.20998        33.57467        -0.98507
H         12.48907         5.54063         1.23601
H         11.10326         7.75518         1.05453
H         11.18885        35.97319         0.15664
H         12.40320        38.12970         0.24685
H         14.51541         4.30888         0.79159
H         14.50177        39.40549         0.27872
H         17.14667         4.32835         1.13686
H         16.99874        39.43249         0.16233
H         19.57320         4.38347         1.45805
H         19.48374        39.43748         0.23735
H         22.05368         4.40271         1.37478
H         21.95816        39.41593         0.22292
H         24.51253         4.39384         1.06146
H         24.37883        39.43156         0.45817
H         27.01263         4.39585         0.66506
H         26.70527        39.23376         1.90740
H         29.51919         4.42794         0.41540
H         29.68057        39.56436         1.45409
H         34.09134         5.79928         0.06492
H         32.00019         4.50186         0.19467
H         34.02368        38.08773         1.33499
H         31.94527        39.32717         1.46535
H         35.26432         7.95553        -0.08481
H         36.48185        10.14724        -0.05013
H         36.49224        33.82797         1.21595
H         35.28253        35.98262         1.01399
H         37.71342        12.20203         0.58725
H         38.72235        14.69858         2.25801
H         38.94041        29.45914         1.38672
H         37.70992        31.60016         1.49324
H         40.51218        16.59363         1.28503
H         41.59106        18.49068         0.68305
H         41.44094        25.22274         1.13156
H         40.19281        27.31918         1.26935
H         42.74828        20.64212         1.03950
H         42.68779        23.08648         1.27422
