         294
 CSIRO Nanostructure Databank - Neutral Graphene Oxide Data Set
C          1.27458         1.93598        -0.42963
C          1.20128         3.25602         0.22559
C          2.39854         1.37880        -0.93937
C          1.87828         4.30072        -0.30849
C          0.90075         6.57779        -0.37010
C          0.91641         7.90624        -0.20631
C          2.06019         5.73437         0.13779
C          2.13279         8.54796         0.36623
C          0.92345        10.82323         0.59148
C          0.95365        12.16115         0.63465
C          2.15226        10.01158         0.73827
C          2.20965        12.92362         0.97222
C          1.18736        14.97096        -0.18076
C          1.21153        16.34105        -0.52698
C          2.25311        14.34355         0.43718
C          2.40183        17.09137        -0.41169
C          2.49229        18.50629        -0.79571
C          3.75701         1.98214        -0.66879
C          3.78135         3.46521        -0.98709
C          5.01264         1.38341        -1.24943
C          4.83183         4.21258        -0.56883
C          3.41611         6.37268        -0.42683
C          3.42361         7.88511        -0.07898
C          4.72411         5.60933         0.04782
C          4.70317         8.63254         0.09178
C          3.43821        10.75925         0.69183
C          3.48195        12.12584         0.65477
C          4.69565         9.93164         0.88899
C          4.76193        12.85584         0.65492
C          3.51914        15.10610         0.69455
C          3.54057        16.47648         0.10548
C          4.77616        14.31156         0.19361
C          4.85220        17.14313        -0.17704
C          3.58940        19.24699        -0.54289
C          4.82180        18.65624         0.10877
C          6.15262         2.08881        -1.08057
C          6.09951         3.44168        -0.42042
C          7.47765         1.54915        -1.59168
C          7.36165         4.21751        -0.24752
C          6.02858         6.40131        -0.15167
C          6.02465         7.89181        -0.04921
C          7.35224         5.69553        -0.00873
C          7.35201         8.61822         0.25271
C          5.97161        10.70345         0.49416
C          5.94127        12.17756         0.79970
C          7.21115         9.95736         1.02862
C          7.25619        12.87344         1.08636
C          6.03030        15.08437         0.53900
C          6.04895        16.43985         0.41684
C          7.29861        14.24310         0.37897
C          7.30003        17.24835         0.48255
C          6.11648        19.27753        -0.34059
C          7.33468        18.64453        -0.06957
C          8.68800         2.14456        -0.89612
C          8.66905         3.65432        -0.76988
C          9.80217         1.42345        -0.67997
C          9.78833         4.21561         0.15128
C          8.50302         6.36980         0.27527
C          8.42719         7.74021         0.92908
C          9.86709         5.75845         0.01599
C          9.74772         8.51711         0.98503
C          8.51195        10.69109         0.78778
C          8.49958        12.05346         0.72742
C          9.74661         9.88258         0.88126
C          9.75613        12.77252         0.38871
C          8.56235        15.02142         0.73671
C          8.58874        16.51502         0.58624
C          9.82361        14.25966         0.55898
C          9.80768        17.16862        -0.05666
C          8.56981        19.30686        -0.19207
C          9.86698        18.67695         0.26439
C         11.02595         1.98649         0.01023
C         11.11357         3.52754        -0.17117
C         12.33958         1.39560        -0.43430
C         12.28981         4.10799         0.61601
C         11.04838         6.33888         0.76597
C         10.96375         7.69647         1.45589
C         12.27395         5.63390         0.69012
C         12.30676         8.45394         1.42215
C         10.97231        10.70352         1.24855
C         11.04567        12.03637         0.52390
C         12.30332         9.93455         1.21657
C         12.34675        12.78561         0.62300
C         11.03587        14.95257        -0.02547
C         11.11038        16.44368         0.34160
C         12.34876        14.28369         0.33716
C         12.31930        17.08604        -0.30386
C         11.09323        19.26559        -0.38068
C         12.28660        18.52709        -0.54144
C         13.53711         2.12189        -0.32433
C         13.55006         3.48065         0.08923
C         14.80884         1.51649        -0.67385
C         14.85344         4.21200         0.18344
C         13.50252         6.24871         0.90133
C         13.63310         7.67355         1.33069
C         14.76127         5.44108         1.08601
C         14.77875         8.33523         0.59232
C         13.46026        10.54605         0.45805
C         13.54566        12.00405         0.36199
C         14.67317         9.71875         0.07760
C         14.68800        12.62288        -0.30365
C         13.51426        14.93806        -0.25897
C         13.45347        16.31317        -0.57932
C         14.67108        14.11295        -0.61949
C         14.60601        16.98487        -1.30916
C         13.50323        19.16974        -0.84253
C         14.78733        18.39729        -0.69352
C         16.02264         2.08369        -0.28880
C         15.96489         3.25152         0.69475
C         17.24570         1.50844        -0.66093
C         17.31924         4.01034         0.97577
C         16.04679         6.23193         0.91636
C         15.98715         7.66458         0.66347
C         17.23020         5.54197         0.86966
C         17.22665         8.50986         0.82380
C         15.93921        10.41255        -0.50174
C         15.99985        11.92992        -0.27643
C         17.23975         9.72397        -0.09763
C         17.15909        12.64964        -0.39531
C         15.96661        14.78699        -0.80895
C         15.92594        16.19493        -1.27047
C         17.15554        14.10625        -0.60918
C         17.21351        16.93770        -1.35018
C         16.02505        19.11243        -1.17629
C         17.19743        18.43575        -1.33292
C         18.48137         2.16310        -0.41436
C         18.51245         3.45806         0.18866
C         19.69257         1.56485        -0.85982
C         19.73417         4.14127         0.22902
C         18.51800         6.28437         0.93982
C         18.54422         7.75991         0.76398
C         19.80253         5.55033         0.69762
C         19.71808         8.44008         0.67265
C         18.50533        10.50818        -0.13610
C         18.50187        11.95964        -0.62255
C         19.69965         9.93029         0.57426
C         19.68862        12.75926        -0.11360
C         18.41803        14.82356        -0.57542
C         18.53858        16.26041        -1.03954
C         19.58767        14.19549        -0.17537
C         19.34287        17.20596        -0.10035
C         18.48930        19.07900        -1.46725
C         19.61397        18.49034        -0.91703
C         20.90652         2.20915        -0.70219
C         20.94487         3.51967        -0.18016
C         22.20874         4.20295         0.05764
C         21.01143         6.35594         0.21838
C         21.06257         7.75147         0.87336
C         22.26268         5.52120         0.34829
C         22.22524         8.57092         0.35115
C         20.98097        10.69796         0.47930
C         20.90856        12.15001         0.13792
C         22.21538         9.91060         0.27090
C         22.10611        12.95280         0.24764
C         20.76041        14.99431         0.27472
C         20.67027        16.52951         0.38179
C         22.06463        14.30931         0.24962
C         21.88904        17.32473         0.38604
C         20.86816        19.13688        -0.87758
C         21.98208        18.54406        -0.25977
O         18.59052        17.61117         0.96262
O         16.95028         8.88481         2.16667
O         14.33818        13.11923        -1.67431
O         12.46683        13.78661         1.69794
O          6.77307         3.49410         0.89292
O         13.55334         9.86091        -0.87729
O         19.36860         5.78334         2.06756
O          7.32960        14.00281        -1.01377
O         16.63438        16.36824        -2.57646
O          6.06914         7.22748        -1.36601
O         20.54007        15.69385         1.55390
O          3.98839         8.69758        -1.17154
O          2.05679         8.94076         1.76720
O         10.43548        12.18781        -0.79286
O         12.51770         9.38390         2.54854
O          9.35348        14.61491         1.88930
O          2.59521         4.00670        -1.48538
O          8.02467        17.17202         1.77653
O         18.15064         9.57830        -1.22299
O         20.25202        10.53765         1.77952
O          5.00355        17.02194        -1.61968
H          4.96309        16.05028        -1.82312
O          9.62306        17.12752        -1.48289
H          9.89566        16.23485        -1.81666
O         10.91654        14.83395        -1.46617
H         10.73821        13.88226        -1.67441
O         14.98311        18.16242         0.73835
H         15.50907        18.89836         1.11645
O          4.62592         5.38735         1.46897
H          5.32256         4.73195         1.71334
O          7.07834         9.86361         2.45867
H          7.42053         8.98109         2.75476
O         10.73044        11.11636         2.61993
H         11.22261        10.50002         3.21131
O          7.28125        13.06619         2.52105
H          7.39810        12.18388         2.93767
O         10.00936        18.89784         1.70679
H          9.22602        18.45663         2.13100
O         11.43573         3.78309        -1.56339
H         10.63548         3.55601        -2.10333
O          2.03436         5.75046         1.56829
H          2.10357         6.67555         1.88869
O          9.43846         3.97176         1.51517
H          9.60075         3.01716         1.71523
O         17.66399         3.73567         2.36128
H         18.37154         4.38861         2.61237
O          7.92383         8.98411        -1.02189
H          7.47555         8.44340        -1.71350
O         11.29948        16.53045         1.76005
H         11.10240        17.45902         2.04109
O         10.84259         1.62361         1.40977
H         11.55706         2.07449         1.92995
O         18.66993        11.93839        -2.06496
H         18.17414        11.14404        -2.38304
O         14.67528         4.98802         2.47137
H         14.54554         5.81859         3.00330
O          3.76040        15.22050         2.13831
H          3.15520        15.90687         2.49190
O          4.70373        18.85420         1.54571
H          5.53709        18.54804         1.96441
O          5.99144        10.67571        -0.95198
H          6.75025        11.21596        -1.26286
O          8.82237         4.10187        -2.14563
H          8.95759         5.08556        -2.13849
O          3.94028         1.90532         0.78532
H          3.17102         2.35050         1.20340
O          4.66814         9.53386         2.26853
H          4.60649        10.33323         2.83077
O          8.04176         7.44280         2.30311
H          8.85598         7.12714         2.77110
O          2.20080        13.04470         2.43112
H          2.95475        13.63505         2.67832
O         10.18236         6.13814        -1.36956
H         10.98163         5.61482        -1.63646
O         19.29589        16.20782        -2.27921
H         18.69479        15.83211        -2.96153
O         20.81813         6.60650        -1.20030
H         20.88636         5.75263        -1.67690
O          4.76427        14.25752        -1.24321
H          5.72425        14.01401        -1.48107
O         14.12952         7.57986         2.72507
H         14.96097         8.11517         2.79326
O         12.25709         3.69693         2.01720
H         13.11835         4.00386         2.41681
O         10.70785         7.38078         2.86742
H         11.26100         7.99134         3.40711
O          3.36365         6.30329        -1.85029
H          3.93813         7.03126        -2.18979
O         15.48832         2.65063         1.90700
H         16.12645         2.89380         2.62088
O         15.21064         4.69370        -1.13819
H         15.06426         3.96634        -1.77946
O         15.84807        10.28549        -1.93529
H         14.91739        10.49397        -2.18320
O         21.28412         7.58714         2.29048
H         21.01320         8.42271         2.72955
O         14.19589        17.13106        -2.67696
H         14.98457        16.95019        -3.24056
O          7.49493         0.12509        -1.53525
H          7.29385        -0.14525        -0.61567
H          0.32849         1.37198        -0.49745
H          0.54314         3.38663         1.09606
H          2.34254         0.38858        -1.41737
H          0.02941         6.07751        -0.81838
H          0.06320         8.52369        -0.52437
H         -0.03580        10.30295         0.45427
H          0.00742        12.71721         0.56285
H          0.25799        14.41601        -0.37152
H          0.30462        16.81180        -0.93172
H          1.60628        18.96570        -1.25918
H          5.02127         0.39546        -1.73473
H          3.59909        20.31901        -0.79283
H          7.56459         1.83273        -2.67909
H          6.11381        20.28722        -0.78072
H          9.77954         0.33845        -0.87422
H          8.57543        20.34913        -0.54913
H         12.38075         0.33477        -0.72576
H         11.11487        20.34937        -0.57871
H         14.80621         0.57657        -1.24733
H         13.52354        20.25796        -1.01452
H         17.24841         0.56893        -1.23520
H         16.03437        20.21451        -1.14456
H         19.65194         0.56205        -1.30850
H         18.57038        20.03103        -2.01797
H         21.84181         1.71757        -1.00477
H         23.12723         3.59696         0.03589
H         23.22636         6.00207         0.56927
H         23.16277         8.03643         0.13484
H         23.11888        10.44012        -0.06788
H         23.07623        12.44315         0.33384
H         22.98771        14.89371         0.36339
H         22.71301        17.00147         1.03946
H         20.93464        20.18666        -1.20292
H         22.91954        19.11448        -0.19603
