         349
 CSIRO Nanostructure Databank - Neutral Graphene Oxide Data Set
C          1.21939         3.52854         1.05014
C          0.07007         4.25908         1.35519
C          1.09779         6.36805         0.63651
C          0.02130         5.65085         1.19677
C          1.12875         7.77798         0.59321
C         -0.06245         8.56098         0.83944
C          1.25243        10.66437         1.07735
C         -0.04154         9.90983         0.95647
C          1.20262        12.12574         0.65911
C          0.01932        12.86356         0.71215
C          1.20388        14.93069         0.21917
C          0.01428        14.24329         0.46522
C          1.21507        16.38897        -0.06537
C         -0.01957        17.21796        -0.03275
C          1.22924        19.18798         0.87683
C          0.00998        18.52560         0.25881
C          1.29591        20.71152         0.73232
C          0.05804        21.46921         0.56700
C          1.24112        23.61745         0.97990
C          0.00660        22.80912         0.66953
C          1.25185        25.00951         0.36652
C          0.07483        25.67245        -0.02827
C          1.24452        27.85540        -0.63313
C          0.05160        26.94349        -0.55942
C          1.41674        28.47227        -2.00570
C          3.55414         3.45472         0.34810
C          2.35478         4.15733         0.48750
C          3.47269         6.30829        -0.30174
C          2.15826         5.55684        -0.08401
C          3.53912         7.77711        -0.05462
C          2.35791         8.49894         0.30882
C          3.61692        10.60897         0.22778
C          2.40875         9.90349         0.46283
C          3.65517        12.05089         0.27475
C          2.42250        12.80047         0.39043
C          3.70098        14.91951         0.16247
C          2.43599        14.21707         0.22049
C          3.75741        16.33846         0.28076
C          2.52000        17.11384         0.05586
C          3.76372        19.16891         0.99540
C          2.54341        18.62964         0.23901
C          3.76703        20.66110         1.12009
C          2.49102        21.38027         0.78562
C          3.80878        23.57919         0.87162
C          2.49575        22.86960         0.46143
C          3.81596        25.00598         0.32536
C          2.52876        25.73681         0.34466
C          3.80823        27.69698        -0.69989
C          2.54064        27.17846        -0.17889
C          3.73737        29.04014        -1.38597
C          2.57696        29.03412        -2.35868
C          5.99393         3.38829        -0.05545
C          4.77820         4.06940        -0.03399
C          6.04005         6.24074        -0.23953
C          4.75587         5.52382        -0.33093
C          6.01721         7.69509        -0.28905
C          4.76539         8.44491        -0.17836
C          6.02914        10.59774        -0.22160
C          4.80871         9.87963        -0.06201
C          6.08685        11.99384        -0.06509
C          4.87722        12.73464         0.13302
C          6.14679        14.88339         0.14253
C          4.91764        14.18458         0.16291
C          6.18707        16.28980         0.24856
C          4.97824        17.01191         0.39911
C          6.31250        19.18309         0.64868
C          5.07591        18.38201         1.03903
C          6.33989        20.58413         0.76851
C          5.10792        21.39525         1.21888
C          6.32608        23.49671         0.55526
C          5.03583        22.72463         0.43364
C          6.28368        24.95070         0.23273
C          4.98590        25.65729         0.02998
C          6.26384        27.67973        -0.82040
C          5.00889        27.02638        -0.49736
C          6.24542        28.91530        -1.59975
C          5.03681        29.45357        -1.99355
C          8.47484         3.37915        -0.28375
C          7.24569         4.06223        -0.25775
C          8.48843         6.22555        -0.49999
C          7.21186         5.51060        -0.31779
C          8.48288         7.66177        -0.12061
C          7.21079         8.38027        -0.31481
C          8.58404        10.54436        -0.45982
C          7.25325         9.83084        -0.49897
C          8.53075        11.99158        -0.23065
C          7.36298        12.68436        -0.09773
C          8.62321        14.90829        -0.25696
C          7.44070        14.13992         0.30513
C          8.63977        16.28241        -0.17219
C          7.44201        17.02067         0.17566
C          8.80908        19.08075         0.43201
C          7.48374        18.41766         0.33179
C          8.83945        20.56858         0.69683
C          7.56328        21.31723         0.61373
C          8.77509        23.42332         0.07068
C          7.58922        22.72128         0.37744
C          8.78517        24.82552        -0.21772
C          7.45966        25.46187        -0.58121
C          8.69015        27.63086        -0.35220
C          7.48394        26.99050        -0.55574
C          8.68206        29.43301        -1.51282
C          7.46316        29.49021        -2.15686
C         10.96994         3.34502        -0.33703
C          9.75416         4.01851        -0.36516
C         11.04688         6.22620        -0.22656
C          9.79006         5.49321        -0.51805
C         11.05766         7.62227        -0.10009
C          9.78742         8.37023        -0.00390
C         11.03104        10.48434         0.10794
C          9.84463         9.83458        -0.12906
C         11.03076        11.96546         0.13828
C          9.83108        12.67049        -0.40760
C         11.17422        14.82098        -0.45603
C          9.86019        14.14503        -0.54803
C         11.13467        16.24794        -0.80793
C          9.86092        17.03540        -0.58649
C         11.21893        19.12476        -0.27177
C         10.01325        18.45642        -0.17333
C         11.44187        20.45817         0.44856
C         10.14920        21.30061         0.55723
C         11.27473        23.41159        -0.35964
C         10.08602        22.75320         0.21015
C         11.22278        24.80458        -0.63367
C          9.98134        25.51242        -0.44974
C         11.24548        27.82110        -0.79459
C         10.01253        26.99794        -0.39169
C         11.16233        29.27502        -1.28259
C          9.98923        29.73597        -1.96649
C         13.46115         3.36606        -0.45074
C         12.23622         4.03937        -0.36019
C         13.49185         6.15720        -0.10095
C         12.26054         5.47648        -0.22809
C         13.48855         7.57437         0.28735
C         12.25805         8.35072         0.14605
C         13.53312        10.47479         0.36573
C         12.28443         9.76073         0.28132
C         13.58384        11.97964         0.65547
C         12.28771        12.73322         0.34363
C         13.62683        14.81114        -0.10759
C         12.33500        14.14583        -0.15230
C         13.69264        16.24727        -0.45111
C         12.41972        16.98326        -0.83437
C         13.66277        19.06514        -0.79333
C         12.42505        18.43232        -0.68785
C         13.64199        20.54158        -1.07238
C         12.66200        21.25248        -0.11699
C         13.63949        23.40583        -0.82087
C         12.46516        22.69484        -0.51715
C         13.62197        24.80382        -0.98548
C         12.38935        25.50393        -1.00689
C         13.75340        27.53578        -1.54621
C         12.32640        26.94198        -1.50202
C         13.51064        30.24409        -0.67003
C         12.20602        30.21278        -1.27583
C         15.92834         3.39396        -0.72901
C         14.70325         4.06534        -0.49741
C         15.94262         6.23627        -0.46349
C         14.71825         5.49069        -0.30809
C         15.99772         7.65106        -0.22937
C         14.81490         8.34578         0.29425
C         16.03386        10.51898         0.21732
C         14.75786         9.81587         0.24199
C         16.05629        11.91966         0.25296
C         14.76621        12.62502        -0.08183
C         16.00611        14.84245         0.57160
C         14.79051        14.11966         0.12356
C         15.99162        16.37126         0.53969
C         14.86245        17.04755        -0.11567
C         16.19071        19.14270        -0.54425
C         14.88618        18.37996        -0.49194
C         16.06574        20.57944        -0.03899
C         14.76891        21.26831        -0.33041
C         16.03401        23.43033        -0.09916
C         14.96145        22.68306        -0.85398
C         15.97401        24.85074        -0.11354
C         14.85795        25.52779        -0.70540
C         15.72747        27.65441         0.11116
C         14.79913        26.92200        -0.67410
C         15.40447        29.00739         0.48597
C         13.98506        29.31633         0.23309
C         18.36316         3.45054        -1.27067
C         17.11899         4.11374        -0.93666
C         18.26729         6.28224        -1.35470
C         17.10093         5.53371        -0.87546
C         18.32386         7.80399        -1.09361
C         17.18107         8.41314        -0.38078
C         18.55833        10.44650         0.09940
C         17.24589         9.76162         0.04597
C         18.59711        11.92147         0.43407
C         17.29116        12.67229         0.50633
C         18.53138        14.84170         0.54667
C         17.30776        14.15178         0.52721
C         18.58516        16.30967         0.83005
C         17.27538        17.13136         0.66711
C         18.62755        19.25921         0.17200
C         17.36422        18.45997         0.11100
C         18.33595        20.55239         0.99922
C         17.14409        21.28825         0.41185
C         18.23815        23.50204         0.96809
C         17.11592        22.75324         0.45824
C         18.15804        24.92870         1.03535
C         17.01261        25.59655         0.49936
C         17.86084        27.77851         1.31218
C         16.87401        27.00842         0.63085
C         17.62985        29.17773         1.49923
C         16.36692        29.76096         1.13048
C         19.50904         4.14261        -1.54855
C         20.67992         6.32717        -1.82205
C         19.53549         5.58270        -1.58481
C         20.72318         7.73730        -1.61050
C         19.63756         8.45089        -1.14746
C         20.73572        10.77471        -1.16018
C         19.76280         9.82100        -0.57592
C         20.75716        12.08127        -0.85211
C         19.92737        12.68262         0.26323
C         20.85085        15.00185        -0.27320
C         19.74823        14.20006         0.15785
C         20.90410        16.36120        -0.12713
C         19.94664        17.01334         0.82348
C         20.87182        19.30175         1.16166
C         19.84090        18.53391         0.72348
C         20.78531        20.74617         1.24145
C         19.58628        21.40165         1.16361
C         20.49007        23.63134         1.87549
C         19.44498        22.84605         1.35204
C         20.36659        25.01171         2.03480
C         19.21239        25.70027         1.61661
C         20.02495        27.95476         2.39522
C         19.05468        27.14686         1.77728
C         19.81205        29.32965         2.56436
C         18.63544        29.93824         2.13908
O          4.06054         5.90748        -1.59208
O         17.91652         7.25839        -2.39320
O          7.97838        10.16704        -1.75050
O          1.99255        16.73660        -1.28058
O          9.15025         5.95142        -1.78068
O          9.02702         7.93649         1.22918
O         10.28421        16.65572        -1.93371
O         18.01438        12.14557         1.73772
O          6.45737        24.50418         1.62559
O          9.88457        13.24941        -1.75311
O          2.55108        26.91780         1.25921
O         13.83048        21.34878         0.85020
O         15.66800        15.65259         1.76627
O         11.01767        27.54076         0.58730
O          8.66672        28.99824        -0.14210
O          3.52431        19.79193         2.30371
O         17.88261        16.80857         1.98513
O         14.24192         7.80290         1.52785
O         10.30848        22.29264         1.62123
O         14.04392        28.25844        -2.49593
O          8.94986        19.61184         1.80133
O         19.61859         9.77825         0.88090
O         13.30687        16.46328        -1.86829
O         11.35060        12.54487         1.46572
O          7.23901        25.04524        -1.89889
O         20.49271        16.73842         2.14727
H         19.76131        16.89768         2.78716
O         20.67736        12.47635         1.48829
H         20.02148        12.45461         2.22156
O          1.57295         5.33580        -1.40356
H          2.33352         5.24369        -2.02618
O          3.42963        30.04028        -0.35825
H          4.14863        30.01317         0.30757
O          5.32198        18.02666         2.43882
H          4.93125        18.74237         2.99229
O         11.77058        20.06418         1.79150
H         11.64183        20.85362         2.36305
O         17.94877        20.10333         2.31741
H         17.73053        20.88784         2.86191
O          1.12745        18.82092         2.26732
H          1.81914        19.31898         2.76343
O          2.36922        22.99480        -0.97718
H          3.11722        22.49429        -1.38474
O          5.35887        21.70515         2.60105
H          4.96573        20.98737         3.14413
O          4.93726        22.37057        -0.96966
H          5.39549        23.05538        -1.50681
O         13.44274        20.80769        -2.45122
H         14.23167        20.48951        -2.93914
O          1.54542        10.71766         2.52492
H          1.58672         9.79268         2.84841
O          7.68594        14.08499         1.76000
H          7.53030        14.98205         2.12729
O         14.33879        31.24639        -1.07498
H         13.91515        31.76438        -1.78659
O          3.86011        23.71754         2.30624
H          4.76138        24.06044         2.53005
O         18.97865        19.70251        -1.17765
H         19.72950        20.32978        -1.09158
O         13.84385        12.12037         2.06021
H         12.97913        12.05530         2.52567
O         14.50224        12.39430        -1.50105
H         15.05498        13.00350        -2.03330
O          0.95218        28.92469         0.30719
H          1.20935        28.59055         1.19536
O          2.66533        19.20924        -1.08016
H          2.27493        18.55758        -1.71177
O         11.90524        26.89392        -2.88545
H         12.51785        27.48980        -3.38257
O          1.23505        23.81615         2.40883
H          2.15292        24.05365         2.69251
O         16.44547        19.30673        -1.98013
H         17.37248        19.63855        -2.07200
O         15.42933        22.58911        -2.22935
H         15.39834        23.48770        -2.61949
H          1.27443         2.46229         1.31606
H         -0.78616         3.74591         1.81527
H         -0.84664         6.19108         1.60087
H         -1.03169         8.04194         0.85786
H         -0.98968        10.44213         1.11664
H         -0.93567        12.37441         0.94543
H         -0.93977        14.78771         0.48890
H         -0.95498        16.75854        -0.38838
H         -0.93335        19.08736         0.20869
H         -0.88155        20.92112         0.41722
H         -0.97221        23.30899         0.65126
H         -0.88209        25.13588         0.04189
H         -0.91707        27.38846        -0.83125
H          0.55504        28.47683        -2.69023
H          3.57630         2.39308         0.64225
H          2.70650        29.50494        -3.34473
H          6.00122         2.30367         0.13296
H          5.03227        30.34212        -2.64293
H          8.45817         2.28074        -0.20467
H          7.39788        29.97230        -3.14248
H         10.98140         2.24515        -0.29066
H         10.10872        30.55005        -2.69979
H         13.46950         2.26966        -0.54530
H         11.96451        31.14143        -1.82506
H         15.93556         2.29776        -0.82214
H         13.27504        28.54291         0.56600
H         18.37333         2.35084        -1.28275
H         16.15986        30.79905         1.42706
H         20.43909         3.59854        -1.77016
H         21.62042         5.80864        -2.05825
H         21.69959         8.23687        -1.69302
H         21.39571        10.39734        -1.95613
H         21.48304        12.72242        -1.37228
H         21.68796        14.50628        -0.78584
H         21.75583        16.93404        -0.51990
H         21.79632        18.81989         1.51232
H         21.71458        21.30083         1.43682
H         21.42378        23.14883         2.19628
H         21.20516        25.56194         2.48305
H         20.96391        27.51690         2.76080
H         20.58802        29.93399         3.05511
H         18.48239        31.01508         2.29935
