         244
 CSIRO Nanostructure Databank - Neutral Graphene Oxide Data Set
C          1.34461         2.05875         0.76127
C          1.22716         3.49276         0.53870
C          2.49212         1.34761         0.97764
C          2.06569         4.39439         1.11240
C          1.03931         6.55353         0.34378
C          1.11055         7.82044        -0.07064
C          2.20763         5.88670         1.01708
C          2.40370         8.58206        -0.10656
C          1.23522        10.67107         0.80833
C          1.27828        12.01734         0.75645
C          2.48228         9.83433         0.78937
C          2.51867        12.74008         0.51781
C          1.49759        14.95961         0.91067
C          1.48018        16.38057         0.76013
C          2.49972        14.18260         0.38576
C          2.44462        17.05445         0.05220
C          2.52212        18.50011         0.13475
C          3.82349         1.91849         0.89138
C          3.96450         3.34297         1.11226
C          4.96251         1.23502         0.51648
C          4.87017         4.14194         0.47395
C          3.57777         6.35989         0.46126
C          3.63412         7.73452         0.18572
C          4.79758         5.60131         0.41276
C          4.86762         8.42311         0.06207
C          3.72508        10.60641         0.36783
C          3.70424        12.03604         0.31507
C          4.87807         9.88241         0.06299
C          5.01234        12.78505         0.20411
C          3.52996        14.76918        -0.55831
C          3.53280        16.30580        -0.62711
C          4.90811        14.17727        -0.38101
C          4.80775        17.05945        -0.92838
C          3.62336        19.20117        -0.20384
C          4.83473        18.59714        -0.86907
C          6.14659         1.99158         0.19391
C          5.95182         3.42226        -0.32095
C          7.39125         1.41741         0.27822
C          7.25901         4.18874        -0.29824
C          6.02740         6.26984         0.14824
C          6.06909         7.67817         0.00525
C          7.27831         5.51417        -0.00379
C          7.33845         8.36418        -0.18516
C          6.09414        10.58753        -0.30618
C          6.11396        11.95115        -0.40189
C          7.31949         9.78780        -0.71087
C          7.31417        12.65140        -0.98885
C          6.06908        14.86383        -0.70147
C          6.09500        16.31427        -0.86781
C          7.33770        14.15293        -0.73849
C          7.29638        17.00646        -0.78897
C          6.12154        19.14562        -0.33712
C          7.32136        18.46109        -0.56156
C          8.60248         2.12522        -0.03844
C          8.43635         3.39936        -0.84576
C          9.82458         1.58106         0.23899
C          9.75163         4.26109        -1.03308
C          8.57744         6.22035         0.32568
C          8.51765         7.70549         0.01127
C          9.82322         5.57626        -0.28015
C          9.78569         8.44884         0.14591
C          8.58584        10.56909        -0.39565
C          8.57910        11.93168        -0.58162
C          9.81800         9.88850        -0.11846
C          9.84809        12.64813        -0.71803
C          8.52440        14.85820        -0.76540
C          8.56079        16.30186        -0.74544
C          9.81894        14.15459        -0.87415
C          9.78275        16.99569        -0.76234
C          8.54476        19.13397        -0.50600
C          9.77864        18.48116        -1.04099
C         11.05686         2.25051        -0.11977
C         11.03160         3.50698        -0.73542
C         12.28354         1.58463         0.11664
C         12.30921         4.21012        -1.08705
C         11.05825         6.23777        -0.21924
C         11.09295         7.67899         0.13527
C         12.30559         5.63742        -0.55772
C         12.33307         8.44281        -0.08601
C         11.05033        10.57294        -0.04791
C         11.08768        12.00108        -0.27238
C         12.28141         9.84080         0.00202
C         12.25554        12.75562        -0.18993
C         11.06330        14.88470        -0.61371
C         11.04719        16.32881        -0.65379
C         12.24358        14.17444        -0.43104
C         12.25914        17.05899        -0.55100
C         11.05164        19.17592        -0.64037
C         12.22915        18.51158        -0.49916
C         13.54728         2.14976        -0.20251
C         13.57909         3.49757        -0.71033
C         14.73415         1.49938         0.16475
C         14.77936         4.20851        -0.78855
C         13.54486         6.33892        -0.51812
C         13.56345         7.75202        -0.26885
C         14.78879         5.64258        -0.70485
C         14.80800         8.47764        -0.26996
C         13.54048        10.57572         0.18822
C         13.50358        12.08302         0.24570
C         14.81064         9.87445        -0.06838
C         14.81576        12.85392         0.27205
C         13.51613        14.90683        -0.60234
C         13.52052        16.37933        -0.48500
C         14.80037        14.17035        -0.47749
C         14.71568        17.04472        -0.18682
C         13.51903        19.30367        -0.37341
C         14.73152        18.48486         0.02157
C         16.01648         2.00236        -0.28847
C         16.04221         3.45627        -0.86227
C         17.26973         1.46120         0.21897
C         17.36930         4.19729        -1.00049
C         16.04461         6.34841        -0.62792
C         16.04867         7.77582        -0.44728
C         17.28251         5.67345        -0.68913
C         17.27684         8.49309        -0.45448
C         16.01343        10.62752        -0.23524
C         16.01159        12.05035        -0.17001
C         17.24866         9.93299        -0.42795
C         17.16179        12.77187        -0.51386
C         16.05326        14.94004        -0.29817
C         15.97517        16.32683        -0.06069
C         17.27280        14.23119        -0.30366
C         17.14462        16.97096         0.40934
C         15.83595        19.10762         0.51162
C         17.04037        18.35489         1.00860
C         18.46806         2.19483         0.20383
C         18.52229         3.54321        -0.26579
C         19.65810         1.61234         0.75487
C         19.72327         4.27915        -0.17180
C         18.52235         6.38281        -0.62945
C         18.52791         7.81874        -0.57575
C         19.74681         5.66986        -0.52380
C         19.78255         8.53594        -0.57808
C         18.43138        10.65874        -0.71958
C         18.26465        12.02282        -0.96996
C         19.78385        10.04481        -0.36632
C         20.10584        13.10284        -0.57095
C         18.47877        14.92062         0.04347
C         18.34978        16.25998         0.50861
C         19.80362        14.28182         0.13319
C         19.49244        16.93880         1.18039
C         18.34195        19.10523         0.89787
C         19.52921        18.42604         1.10708
C         20.83156         2.33294         0.84112
C         20.89052         3.67285         0.39456
C         22.07789         4.46958         0.57827
C         21.07168         6.35973        -0.71963
C         20.99481         7.87001        -0.58321
C         22.16762         5.73548         0.10952
C         22.23582         8.62185        -0.56575
C         21.05146        10.79579        -0.90964
C         21.12742        12.19587        -0.26029
C         22.28514         9.96950        -0.64781
C         22.06362        12.64869         0.68044
C         20.85302        14.77582         0.95238
C         20.77015        16.18077         1.44921
C         21.96802        13.95474         1.19112
C         22.00289        16.97663         1.55364
C         20.77606        19.07955         1.29250
C         21.96594        18.35464         1.50453
O          8.04214         2.97066        -2.14596
O          3.87041        16.69093        -2.00993
O         13.41685        11.31892         1.49700
O         19.25308        12.75890        -1.63550
O         16.00024         2.32443        -1.74810
O          3.03141         3.89673         2.01284
O          9.92817        13.28694        -2.07181
O         14.21597        14.28760        -1.79848
O         19.77676        16.40626         2.52632
O         10.47455         8.05799         1.41790
O          7.24107        12.49138        -2.45189
H          8.10579        12.82405        -2.79924
O          8.72979         6.05468         1.77247
H          9.40713         6.71698         2.06246
O          7.30168         9.66106        -2.16309
H          7.18962        10.57597        -2.52798
O          9.71022        18.61773        -2.51606
H         10.48971        18.15060        -2.88550
O         20.98990        10.91694        -2.34042
H         20.32669        11.61302        -2.56061
O          2.69508         9.36964         2.14991
H          2.55347        10.12485         2.75689
O          5.44892        13.02184         1.60414
H          5.49140        12.14608         2.04540
O         19.86354        10.23354         1.08115
H         19.13808         9.72076         1.49610
O         13.78557        19.94202        -1.64021
H         13.94960        19.24211        -2.30513
O         12.37040         4.38359        -2.54010
H         11.43748         4.58656        -2.83040
O          2.53946         9.07010        -1.46716
H          2.63777         8.29883        -2.06297
O         21.45349         6.11290        -2.12737
H         20.68495         6.35712        -2.68647
O          9.75178         4.67906        -2.42684
H          9.06950         4.05762        -2.84546
O         15.04746        13.26097         1.64959
H         14.72700        12.51882         2.21501
O         17.72231         4.13354        -2.42340
H         17.40743         3.25761        -2.74759
O          4.79423        19.07452        -2.25550
H          4.21238        18.44328        -2.74025
O          3.10338        14.27743        -1.86812
H          3.46019        14.91287        -2.53294
O          2.20180         6.35486         2.39732
H          2.80561         5.75885         2.89454
O         16.82502        18.16284         2.45544
H         17.57912        17.63202         2.79535
O          5.50853         3.32482        -1.69398
H          6.34650         3.09680        -2.20185
H          0.40896         1.48508         0.65815
H          0.39712         3.83968        -0.09407
H          2.41869         0.25011         1.03375
H          0.08419         6.00713         0.30411
H          0.23353         8.30813        -0.52408
H          0.27728        10.15476         0.97120
H          0.34468        12.59463         0.82418
H          0.72043        14.50276         1.53953
H          0.70552        16.95497         1.28869
H          1.65989        19.01971         0.58111
H          4.97710         0.13595         0.45860
H          3.62928        20.29511        -0.08633
H          7.48003         0.38073         0.64375
H          6.15765        20.21797        -0.08964
H          9.89499         0.60420         0.74138
H          8.56155        20.20924        -0.27217
H         12.25541         0.57863         0.56156
H         11.04519        20.27681        -0.62748
H         14.69785         0.59755         0.79194
H         13.37283        20.13219         0.36551
H         17.24164         0.49862         0.75070
H         15.81940        20.19824         0.66330
H         19.61730         0.57419         1.11429
H         18.33488        20.20580         0.87218
H         21.73137         1.87269         1.27441
H         22.92065         4.02384         1.12838
H         23.10014         6.29631         0.26175
H         23.18072         8.06394        -0.50429
H         23.26113        10.47582        -0.69085
H         22.89693        12.00549         0.99622
H         22.76459        14.31812         1.85566
H         22.97053        16.45868         1.61606
H         20.81023        20.17767         1.25930
H         22.90739        18.91457         1.60296
