         349
 CSIRO Nanostructure Databank - Neutral Graphene Oxide Data Set
C          1.22917         2.08342         0.22715
C          1.19475         3.47925         0.17697
C          2.43510         1.41901         0.43799
C          2.37073         4.23198         0.29220
C          1.14223         6.40542        -0.33038
C          1.18299         7.70881        -0.66513
C          2.35178         5.76094         0.30941
C          2.41432         8.49766        -0.58180
C          1.15729        10.65190        -0.58228
C          1.10253        12.00477        -0.65489
C          2.40372         9.91686        -0.66794
C          2.30550        12.80044        -0.91863
C          1.57195        14.81577         2.08467
C          1.52540        16.21324         2.11710
C          2.63875        14.14383         1.43898
C          2.51750        16.97846         1.50034
C          2.59065        18.39157         1.66909
C          3.62530         2.14594         0.58623
C          3.59650         3.55081         0.49364
C          4.88484         1.38687         0.94474
C          4.87408         4.30470         0.59953
C          3.61646         6.30110        -0.41471
C          3.64126         7.81434        -0.49124
C          4.89003         5.74932         0.18764
C          4.87058         8.50248        -0.60794
C          3.63362        10.60941        -0.79786
C          3.67040        12.11143        -0.99759
C          4.84863         9.90981        -0.80077
C          4.84464        12.73411        -0.20721
C          3.63471        14.81974         0.72336
C          3.53077        16.32622         0.59557
C          4.82660        14.13264         0.25014
C          4.85550        17.04404         0.62279
C          3.71126        19.10031         1.30739
C          4.89985        18.42289         0.83416
C          6.17161         2.16225         0.76709
C          6.14869         3.56509         0.59828
C          7.38408         1.47131         0.80962
C          7.36468         4.28544         0.44287
C          6.16362         6.37719        -0.23753
C          6.14107         7.77064        -0.60434
C          7.34832         5.65917        -0.06007
C          7.34027         8.48763        -0.76872
C          6.11901        10.70174        -1.04264
C          6.03708        12.05964        -0.34851
C          7.37884         9.92770        -0.70495
C          7.31049        12.66459         0.06966
C          6.02919        14.85638         0.25741
C          6.02374        16.34406        -0.00422
C          7.30629        14.16621         0.34757
C          7.32906        17.03888         0.28046
C          6.11586        19.14596         0.62760
C          7.33360        18.47516         0.39895
C          8.62365         2.16700         0.79409
C          8.57752         3.58514         0.66597
C          9.87640         1.47959         0.83553
C          9.83698         4.32586         0.73649
C          8.59713         6.23449        -0.57415
C          8.60424         7.77247        -0.95858
C          9.85701         5.63331        -0.04867
C          9.85726         8.55373        -0.86701
C          8.57124        10.60967        -0.52653
C          8.57807        12.11624        -0.57568
C          9.83743         9.92599        -0.48882
C          9.84297        12.75252        -0.04039
C          8.57927        14.90868         0.27670
C          8.53241        16.32187         0.33964
C          9.82261        14.19587         0.21959
C          9.77213        17.07775         0.60473
C          8.56628        19.19288         0.30021
C          9.80393        18.53167         0.33386
C         11.14047         2.13019         0.85470
C         11.14030         3.61224         0.98743
C         12.33353         1.44635         0.61612
C         12.43988         4.36658         0.76181
C         11.16102         5.95140        -0.61196
C         11.10482         7.99743        -1.13820
C         12.36152         5.59756        -0.06868
C         12.32998         8.55192        -0.69523
C         11.05592        10.62607        -0.27437
C         11.01666        12.04096         0.03962
C         12.30713         9.92887        -0.32069
C         12.28414        12.74566         0.51856
C         11.03555        14.88318         0.27386
C         11.08459        16.30963         0.57981
C         12.31881        14.16704        -0.06123
C         12.32648        17.05869         0.34075
C         11.04705        19.17444         0.18368
C         12.29311        18.47595         0.18598
C         13.66197         2.07864         0.60082
C         13.73497         3.60021         0.69641
C         14.85950         1.39239         0.11109
C         14.99168         4.36259         0.27913
C         13.56076         6.30440        -0.52954
C         13.53696         7.77042        -0.64914
C         14.75256         5.60822        -0.54694
C         14.74297         8.46482        -0.37112
C         13.55020        10.58086        -0.04840
C         13.57046        12.01969         0.17965
C         14.74930         9.84942        -0.07791
C         14.74457        12.71224         0.10454
C         13.55775        14.93478         0.35506
C         13.55024        16.32558         0.37130
C         14.80823        14.15662         0.43802
C         14.80492        17.11252         0.43599
C         13.51262        19.16888        -0.07522
C         14.76070        18.52101        -0.01685
C         16.06478         2.08143        -0.17626
C         16.10073         3.50578        -0.28139
C         17.27936         1.36099        -0.39571
C         17.28176         4.17514        -0.73855
C         15.97482         6.27175        -0.98099
C         16.00890         7.78562        -0.68135
C         17.24819         5.56192        -1.02788
C         17.31924         8.33898        -0.20936
C         16.01790        10.56924         0.37204
C         16.01751        11.98265        -0.17037
C         17.33495         9.78689         0.17581
C         17.30116        12.71610        -0.33448
C         16.14190        14.88121         0.37300
C         16.13164        16.38328         0.36861
C         17.33321        14.19883        -0.20243
C         17.29740        17.09834        -0.17404
C         15.97583        19.15920        -0.31650
C         17.21964        18.46497        -0.38537
C         18.48869         2.02663        -0.67053
C         18.48519         3.42365        -0.90235
C         19.75052         1.32367        -0.67932
C         19.72408         4.09613        -1.34174
C         18.43586         6.40050        -1.47215
C         18.62351         7.54741        -0.44773
C         19.70849         5.57833        -1.59565
C         19.82969         8.43527        -0.73397
C         18.64728        10.52175         0.04454
C         18.62144        12.01534        -0.15535
C         19.84820         9.78961        -0.43971
C         19.79491        12.70236        -0.75624
C         18.46462        14.88032        -0.51983
C         18.60181        16.34371        -0.13091
C         19.65874        14.14784        -1.03714
C         19.76401        17.08268        -0.74718
C         18.44014        19.27854        -0.75611
C         19.74030        18.50456        -0.76727
C         20.96267         1.97646        -0.80775
C         21.01878         3.40916        -1.10340
C         22.19909         1.27863        -0.57752
C         22.21501         4.07347        -1.18011
C         20.98462         6.36502        -1.59866
C         21.01816         7.75028        -1.16090
C         22.33348         5.52019        -1.46879
C         22.25853         8.46760        -1.27699
C         21.14268        10.59231        -0.47314
C         20.99315        12.04424        -0.94752
C         22.27942         9.83914        -1.11581
C         22.19655        12.79117        -1.26637
C         20.95132        14.93655        -1.23692
C         20.96204        16.39908        -0.98253
C         22.21605        14.18990        -1.22539
C         22.19498        17.10578        -1.02309
C         20.93122        19.20763        -0.86669
C         22.17843        18.52849        -0.88960
C         23.41325         1.92884        -0.57518
C         23.53590         3.34036        -1.10803
C         24.61662         1.26563        -0.18606
C         24.63252         4.13211        -0.42077
C         23.51111         6.24674        -1.04141
C         23.54303         7.69435        -1.38537
C         24.62840         5.58657        -0.48987
C         24.82385         8.44684        -1.07961
C         23.51501        10.55251        -1.60030
C         23.47462        12.07132        -1.47301
C         24.76959         9.92228        -1.00280
C         24.74364        12.81883        -1.11922
C         23.45496        14.94184        -1.10777
C         23.44655        16.40704        -1.07061
C         24.63757        14.26623        -0.87053
C         24.64308        17.13985        -0.97256
C         23.39817        19.22652        -0.71091
C         24.61498        18.54684        -0.69348
C         25.77040         1.98748         0.09362
C         25.71100         3.44494         0.08866
C         27.01563         1.31848         0.36077
C         26.83383         4.19129         0.67679
C         25.78535         6.32358        -0.08341
C         25.89429         7.75059        -0.32274
C         26.91408         5.64673         0.47268
C         26.95857         8.46958         0.15967
C         25.87090        10.64050        -0.57509
C         25.92846        12.06713        -0.64913
C         27.16066         9.92145        -0.20576
C         27.07258        12.77490        -0.18378
C         25.93037        14.97061        -0.81185
C         25.95591        16.45802        -1.00755
C         26.99375        14.27515         0.00747
C         27.24239        17.27371        -0.81153
C         25.82106        19.24696        -0.29397
C         27.04092        18.63641        -0.18892
C         28.17679         1.99529         0.66797
C         28.12564         3.44138         0.97072
C         29.46574         1.35417         0.72061
C         29.37095         4.21750         0.99512
C         28.08365         6.33034         0.82514
C         27.99227         7.81651         1.05271
C         29.32557         5.63729         1.03881
C         29.31474         8.54376         1.04528
C         27.96518        10.66757         0.87839
C         28.08507        12.14208         0.54270
C         29.29313         9.95056         1.08702
C         29.16283        12.91501         1.18527
C         28.32681        14.98863         0.03946
C         28.38325        16.46454        -0.17103
C         29.34401        14.34814         0.90714
C         29.30241        17.19884         0.79598
C         28.24536        19.34533         0.17759
C         29.40757        18.67517         0.48617
C         30.61124         2.07703         0.89265
C         30.60102         3.52125         0.99522
C         31.79633         4.26072         1.10638
C         30.55163         6.36791         1.13935
C         30.53342         7.83251         1.14986
C         31.76227         5.64930         1.18828
C         31.72822         8.57596         1.25550
C         30.48841        10.66570         1.31642
C         30.43888        12.12249         1.60305
C         31.70358         9.95914         1.36253
C         31.66829        12.91186         1.74028
C         30.51593        15.02280         1.22556
C         30.61035        16.46848         1.00681
C         31.66671        14.26836         1.67104
C         31.77128        17.18951         1.12044
C         30.66715        19.33565         0.67795
C         31.79620        18.61729         0.96939
O         16.56470        12.19265        -1.50885
O          7.37092        13.12649         1.42830
O         26.21059        15.52936        -2.13546
O         24.32809        12.60871        -2.53698
O         10.42206        16.68803         1.84917
O         17.31615         8.73112         1.20496
O         18.88517        11.44673         1.17759
O         29.40029        12.47627         2.56592
O         20.07405        14.57169        -2.36937
O          8.57046         6.69124        -1.93903
O         26.53268        14.25723         1.35776
O         11.16951         6.74492        -1.76615
O          4.84489         5.40519         1.60961
O          9.80439         5.61138         1.41498
O         28.97364        15.56602        -1.15664
O          4.00077        12.34709        -2.41247
O         19.61221         4.65906        -2.72290
O         27.17929         3.78176         2.04410
O         15.62697        16.93300         1.63555
O         11.85109         4.26819         2.08722
O         24.52548         7.95566        -2.43703
O         13.96829         2.82937         1.88430
O         15.90202         7.28150        -2.03517
O         21.81361         6.02810        -2.73122
O         15.66283        14.34342         1.63689
O          2.33531         6.20083         1.68433
H          3.18048         5.89179         2.09729
O         18.53547        20.41655         0.11305
H         18.64987        20.08869         1.02879
O          8.49989        12.50149        -1.98277
H          7.78366        11.95352        -2.40206
O         18.96254        16.29385         1.29981
H         18.15104        16.08412         1.81303
O         23.55372        10.26486        -3.02670
H         24.10109        10.97040        -3.44429
O          2.71835        12.78185         1.55186
H          1.99360        12.45425         2.12090
O         28.01038         9.94806        -1.38948
H         27.52733         9.50871        -2.12159
O         27.50195         7.95552         2.43566
H         26.65074         7.47281         2.50080
O          4.94622         0.14794         0.22463
H          5.01049         0.35152        -0.73072
O         21.55308        10.73172         0.94082
H         20.76581        11.08915         1.42273
O         18.94212         6.84890         0.77840
H         18.70790         7.44877         1.52530
O          3.59496         5.79876        -1.77827
H          2.84235         6.22114        -2.24377
O         27.19291        10.66996         2.09634
H         27.67955        11.21814         2.75403
O         12.21074        12.88006         1.95499
H         12.39303        12.00926         2.36395
O         15.87429        10.75605         1.80194
H         16.14596         9.91641         2.23664
O          2.23084        13.98379        -1.25535
H          3.75583        13.28332        -2.59855
O          6.25539        10.94266        -2.48217
H          5.44752        11.44604        -2.76861
O         12.39497        14.00719        -1.51222
H         12.24102        14.87879        -1.93208
O         15.53792         4.90480         1.53458
H         15.36801         4.22386         2.22668
O         23.98619         3.20817        -2.49985
H         23.22471         2.89552        -3.03300
O          3.05774        16.58988        -0.78477
H          3.76571        16.25574        -1.38580
O          5.80637        16.45013        -1.48598
H          5.92229        17.39743        -1.71950
O         28.58365        17.12116         2.07126
H         29.13720        17.54927         2.75729
O         18.24030         7.00267        -2.76072
H         18.36009         6.29860        -3.43506
O         27.70609        17.61622        -2.14384
H         27.79504        16.76171        -2.62618
H          0.29682         1.51136         0.12306
H          0.22492         3.97778         0.04666
H          2.46625         0.32253         0.50253
H          0.19576         5.85431        -0.42454
H          0.27862         8.19255        -1.06247
H          0.22728        10.08613        -0.42707
H          0.13993        12.53129        -0.59166
H          0.81895        14.22520         2.62581
H          0.73507        16.71461         2.69477
H          1.74939        18.90820         2.15576
H          4.80514         1.10572         2.03268
H          3.75101        20.18895         1.45483
H          7.37394         0.37625         0.90644
H          6.11638        20.23756         0.75825
H          9.85919         0.37981         0.81007
H          8.53635        20.29013         0.22692
H         12.28479         0.36919         0.39544
H         11.06241        20.26327         0.02567
H         14.84011         0.29621         0.02389
H         13.47379        20.23907        -0.32761
H         17.28246         0.26931        -0.26219
H         15.97062        20.23235        -0.55761
H         19.74547         0.24304        -0.47216
H         18.28225        19.69371        -1.79125
H         22.15082         0.21803        -0.28586
H         20.91328        20.30699        -0.85085
H         24.60483         0.17455        -0.04151
H         23.37475        20.30960        -0.52087
H         27.05216         0.22815         0.21371
H         25.71171        20.29688         0.02027
H         29.51289         0.26216         0.59717
H         28.23553        20.44709         0.15603
H         31.58442         1.56541         0.92074
H         32.76040         3.73336         1.13331
H         32.71739         6.18382         1.27395
H         32.70000         8.06872         1.30819
H         32.65107        10.49446         1.50750
H         32.61579        12.38729         1.92593
H         32.61165        14.80203         1.84383
H         32.72829        16.68614         1.31929
H         30.72214        20.42469         0.53277
H         32.76020        19.13346         1.07915
