         420
 CSIRO Nanostructure Databank - Neutral Graphene Oxide Data Set
C         27.61362        28.06881        -0.83306
C         27.68586        29.30803        -0.20898
C         26.49911        30.12063        -0.07001
C         27.71423        31.70801         1.41811
C         26.50058        31.25976         0.64988
C         27.84214        33.22955         1.41874
C         26.70365        33.99730         1.70743
C         27.99299        36.05918         1.58859
C         26.76912        35.38362         1.76356
C         28.06500        37.51795         1.71670
C         26.99191        38.31967         2.05093
C         28.18386        40.43096         1.58314
C         27.05100        39.74054         1.98182
C         28.20162        41.85473         1.29292
C         27.03639        42.64080         1.49409
C         28.20875        44.64543         0.79202
C         27.03548        43.99761         1.25159
C         28.21636        46.04868         0.55130
C         30.02307        27.74434        -0.57393
C         28.76098        27.28123        -0.97789
C         30.16634        29.04000         0.02287
C         28.95572        29.80888         0.28101
C         30.25917        31.62942         1.45409
C         28.97874        31.00541         0.97575
C         30.29523        33.06920         0.92096
C         29.07762        33.88501         1.23654
C         30.50792        35.98367         1.34098
C         29.15872        35.28842         1.33121
C         30.39397        37.38056         0.73109
C         29.36726        38.16925         1.50575
C         30.60456        40.30844         0.77153
C         29.43708        39.68159         1.42813
C         30.59664        41.71547         0.56438
C         29.38893        42.47773         0.81941
C         30.57643        44.54846         0.10671
C         29.39423        43.88481         0.57038
C         30.56344        45.95188        -0.10723
C         29.35698        46.67935         0.12135
C         32.24774        24.76191        -1.25682
C         31.11366        25.59930        -1.16794
C         32.51788        27.57442        -0.67919
C         31.20066        26.92941        -0.78852
C         32.65453        28.85767         0.05983
C         31.44560        29.53259         0.40311
C         32.85555        31.55775         0.95455
C         31.53363        30.83205         1.10979
C         32.88335        33.01976         0.84049
C         31.61058        33.74713         0.73407
C         32.84115        35.86225         0.43930
C         31.66110        35.21028         0.73970
C         32.84845        37.32145         0.35008
C         31.72599        38.08551         0.59934
C         32.95982        40.19634         0.10545
C         31.74606        39.53076         0.48194
C         32.97864        41.61677        -0.06922
C         31.77465        42.37078         0.11621
C         32.95144        44.43861        -0.55804
C         31.77995        43.79269        -0.11641
C         32.94741        45.85898        -0.79134
C         31.76507        46.61917        -0.54570
C         32.97889        48.65915        -1.11379
C         31.81403        48.02390        -0.73315
C         34.67088        22.88650        -1.18993
C         34.65562        24.29585        -0.99486
C         33.53435        25.22568        -1.04870
C         35.03802        27.20953        -0.34254
C         33.75635        26.70431        -0.91635
C         35.18881        28.54130         0.43652
C         33.94478        29.42149         0.29025
C         35.29945        31.49664         0.57041
C         34.05728        30.80935         0.53731
C         35.33237        32.93866         0.60612
C         34.08168        33.67981         0.59739
C         35.31250        35.76804         0.19704
C         34.09170        35.11203         0.34782
C         35.36101        37.18938        -0.19075
C         34.06589        37.98555        -0.13337
C         35.37726        40.08049        -0.36422
C         34.14334        39.44875        -0.10200
C         35.39431        41.49808        -0.56420
C         34.18782        42.25621        -0.45314
C         35.34027        44.30781        -1.14803
C         34.18271        43.68249        -0.72066
C         35.33447        45.73298        -1.64991
C         34.12101        46.52496        -1.23624
C         35.42359        48.61606        -1.68251
C         34.16077        47.92125        -1.37513
C         35.46722        49.98974        -2.01201
C         37.13930        22.79774        -1.25580
C         35.86651        22.15981        -1.21663
C         37.09742        24.20064        -1.09165
C         35.91096        24.89792        -0.79050
C         38.01412        27.31007         0.19806
C         35.97984        26.23950        -0.24448
C         37.85373        28.69060         0.32915
C         36.54002        29.35218         0.36367
C         37.77190        31.47517         1.02926
C         36.52849        30.73515         0.52996
C         37.80680        32.97603         0.80191
C         36.55182        33.66309         0.59346
C         37.75923        35.83703         0.46990
C         36.55642        35.08832         0.41318
C         37.81448        37.24098         0.19891
C         36.62163        37.93883        -0.11225
C         37.85715        40.04123        -0.44002
C         36.61502        39.34052        -0.34322
C         37.85886        41.43844        -0.77279
C         36.62933        42.12562        -0.89014
C         37.89525        44.26598        -1.40939
C         36.58450        43.53526        -1.30913
C         37.88581        45.73864        -1.16563
C         36.59779        46.48147        -1.23696
C         37.89235        48.59899        -1.64812
C         36.64418        47.93132        -1.53645
C         37.91289        49.99348        -1.94021
C         36.67644        50.65308        -2.14216
C         40.25713        20.42973        -1.25774
C         38.92078        20.92086        -1.09585
C         40.46233        23.37924        -1.45499
C         38.45639        22.16700        -1.47211
C         40.44263        24.70644        -0.94475
C         39.23929        25.40669        -0.78559
C         40.44839        27.38815        -0.05386
C         39.22482        26.68292        -0.18812
C         40.34980        28.76266         0.30616
C         39.11203        29.40313         0.39684
C         40.33556        31.60078         0.95664
C         39.08617        30.86692         0.59641
C         40.25696        33.02797         1.48899
C         38.97854        33.67924         0.97790
C         40.30018        35.90112         0.86678
C         38.97718        35.15145         0.92472
C         40.30550        37.28889         0.36811
C         39.07400        37.95421         0.14959
C         40.32959        40.03622        -0.30216
C         39.08080        39.33843        -0.21680
C         40.32442        41.42017        -0.69190
C         39.13031        42.12164        -0.92838
C         40.33671        44.29355        -1.17855
C         39.16162        43.54773        -1.16492
C         40.35685        45.74253        -1.25576
C         39.15478        46.47280        -1.31533
C         40.37858        48.57277        -1.57203
C         39.14087        47.87795        -1.49640
C         40.39434        49.98869        -1.80884
C         39.18013        50.69680        -2.01933
C         40.44608        52.76182        -2.33736
C         39.24213        52.09180        -2.28886
C         42.71774        20.41306        -1.33692
C         41.47834        21.12716        -1.36969
C         42.84240        23.21185        -0.95441
C         41.58370        22.57276        -1.28666
C         42.88775        24.60666        -0.69067
C         41.67186        25.34363        -0.58305
C         42.92485        27.51169        -0.40095
C         41.66468        26.72023        -0.27115
C         42.90479        28.77298         0.41035
C         41.61457        29.38755         0.75559
C         42.88109        31.53912         1.33036
C         41.58243        30.80591         1.22202
C         42.82680        33.05715         1.27001
C         41.54254        33.78178         1.11624
C         42.81273        35.86431         0.64022
C         41.56688        35.12687         0.83833
C         42.80805        37.25004         0.40168
C         41.54868        37.96754         0.22854
C         42.82795        40.13472         0.15209
C         41.54884        39.35414        -0.05939
C         42.87463        41.47201        -0.53845
C         41.60975        42.07805        -0.96453
C         42.86252        44.32554        -0.99528
C         41.61972        43.58855        -1.24125
C         42.83518        45.74521        -1.04275
C         41.59918        46.44713        -1.25054
C         42.85164        48.57198        -1.36641
C         41.60617        47.86229        -1.39555
C         42.87321        49.98467        -1.60048
C         41.64576        50.67975        -1.84582
C         42.91857        52.76041        -2.13360
C         41.66948        52.07723        -2.10910
C         43.93836        21.04817        -1.17868
C         45.32219        23.14057        -0.79817
C         44.04994        22.45147        -0.96399
C         45.35548        24.55058        -0.54249
C         44.13478        25.29151        -0.45555
C         45.38344        27.36387         0.01721
C         44.15935        26.67782        -0.20444
C         45.37143        28.76340         0.37155
C         44.12061        29.44489         0.61875
C         45.33590        31.56251         0.92894
C         44.12975        30.83171         0.98533
C         45.28500        33.02234         0.92388
C         44.08030        33.74502         0.93017
C         45.29382        35.86592         0.68734
C         44.06342        35.15540         0.73383
C         45.32192        37.26235         0.39503
C         44.06525        37.96285         0.20676
C         45.32568        39.99409        -0.47662
C         44.07462        39.32611        -0.07615
C         45.39098        41.49618        -0.75750
C         44.04822        42.17922        -0.62424
C         45.26063        44.34086        -0.47815
C         44.05979        43.62211        -0.77503
C         45.25211        45.76022        -0.57179
C         44.05084        46.46225        -0.90666
C         45.29579        48.59800        -1.00483
C         44.06017        47.88122        -1.08716
C         45.33124        49.99252        -1.28957
C         44.10680        50.69299        -1.60058
C         44.09359        52.09057        -1.88299
C         47.76427        23.18857        -0.96360
C         46.55849        22.48124        -0.95558
C         47.80811        24.57077        -0.75332
C         46.59470        25.26244        -0.48481
C         47.84260        27.40797        -0.14783
C         46.60294        26.67160        -0.18849
C         47.84537        28.78450         0.24188
C         46.59351        29.46844         0.51562
C         47.83970        31.66374         0.59161
C         46.56548        30.86961         0.75223
C         47.71463        33.05062         1.20572
C         46.51145        33.75514         0.95802
C         47.74457        35.89448         1.06687
C         46.51682        35.17818         0.93750
C         47.76799        37.30027         0.79687
C         46.56134        37.93857         0.38731
C         47.93828        40.09586        -0.10164
C         46.63876        39.28659        -0.18594
C         47.71544        41.56264         0.26972
C         46.52988        42.22716        -0.06884
C         47.57491        44.40768         0.40629
C         46.45053        43.65142        -0.03614
C         47.58474        45.84614         0.22636
C         46.44631        46.50319        -0.32503
C         47.71458        48.61860        -0.51662
C         46.48652        47.90858        -0.60798
C         47.73609        49.99189        -0.86643
C         46.58469        50.65772        -1.23583
C         50.37963        24.70536        -0.79750
C         49.05565        25.36884        -1.06164
C         50.24802        27.52622        -0.63024
C         49.05010        26.77187        -0.50682
C         50.21279        28.92667        -0.33662
C         49.06818        29.50885         0.21875
C         50.36926        31.65187         0.63148
C         49.11069        30.84819         0.93696
C         50.63557        32.81381         1.31459
C         48.78012        33.81550         1.68563
C         50.23168        35.85345         1.46057
C         48.92733        35.19890         1.44512
C         50.13611        37.35395         1.70303
C         48.96830        38.04046         0.98741
C         50.13914        40.19365         1.14012
C         49.00421        39.42173         0.75072
C         50.08166        41.64167         1.10237
C         48.83345        42.30779         0.74653
C         49.85479        44.48365         1.41956
C         48.73586        43.71788         0.84993
C         49.85703        46.02198         1.23267
C         48.75160        46.60793         0.47686
C         50.15401        48.56120         0.05089
C         48.88901        47.94121        -0.00768
C         51.52343        25.45703        -0.89154
C         52.64192        27.69351        -1.50301
C         51.48280        26.88054        -0.96052
C         52.64319        29.14636        -1.06871
C         51.36517        29.75315        -0.76082
C         52.65906        31.96530        -0.32448
C         51.37647        31.24671        -0.33789
C         52.70845        33.28708         0.20846
C         51.60573        33.79401         0.93906
C         52.77851        35.94504         1.38326
C         51.45111        35.20927         1.25254
C         52.68014        37.45340         1.37728
C         51.42372        38.10699         1.50492
C         52.55529        40.27604         1.85833
C         51.34133        39.50950         1.50056
C         52.48393        41.76014         1.78460
C         51.21364        42.41015         1.41075
C         52.32969        44.58360         1.80126
C         51.17524        43.83810         1.54881
C         52.23623        46.06756         2.12743
C         51.14251        46.71153         1.28779
C         51.26528        47.92915         0.64488
C         55.11623        27.85149        -1.52175
C         54.01157        27.07954        -1.40837
C         55.05394        29.30063        -1.49556
C         53.79658        29.93661        -1.19347
C         55.01042        32.11912        -1.02106
C         53.80372        31.35411        -0.87877
C         55.00373        33.53362        -0.67047
C         53.87759        34.10197        -0.01159
C         55.03091        36.23300         0.25295
C         53.89140        35.43498         0.47080
C         55.06236        37.61719         0.73476
C         53.86191        38.19380         1.25954
C         55.03865        40.45204         1.32596
C         53.91918        39.58053         1.86467
C         54.97680        41.90154         1.48665
C         53.72906        42.54510         1.66608
C         54.81663        44.73282         1.68870
C         53.62950        43.95201         1.73710
C         54.72731        46.17469         1.81459
C         53.54942        46.79601         2.01580
C         56.20506        30.07679        -1.63802
C         56.17809        31.46550        -1.44561
C         56.11890        34.37030        -0.90101
C         56.11977        35.68485        -0.46992
C         56.18314        38.42805         0.56149
C         56.14940        39.82546         0.80437
C         56.13871        42.70676         1.41921
C         56.05755        44.08972         1.53685
O         37.23557        43.81456        -2.64351
O         46.05087        39.26942        -1.53434
O         42.95240        32.33582         2.55519
O         37.14144        46.10153         0.06913
O         37.06571        26.39242         0.60727
O         34.57484        37.44457        -1.40881
O         41.69557        42.61493        -2.33271
O         49.45689        45.37386         2.51079
O         50.93657        30.83717        -1.66214
O         30.75475        33.19736        -0.45140
O         29.85761        38.92682         2.63615
O         39.34475        22.97219        -2.20889
O         52.36442        41.04664         3.10519
O         49.80239        33.15959         2.39174
O         39.57675        35.75708         2.15208
O         38.13189        25.01955        -1.51180
O         33.22205        27.53758        -1.98309
O         41.47323        29.75408         2.21444
O         39.87056        31.56803        -0.43410
O         32.43277        30.91694         2.26293
O         37.74025        31.27021         2.47407
H         36.88807        31.61542         2.81371
O         35.31878        45.68379        -3.10737
H         35.98953        45.00771        -3.37677
O         49.82217        37.49984         3.13198
H         50.61584        37.22001         3.63691
O         30.86459        36.16421         2.74226
H         30.74624        35.30950         3.20624
O         53.23131        35.61221         2.74482
H         53.36264        34.64097         2.78241
O         29.86850        37.25475        -0.61429
H         30.47814        36.68517        -1.13045
O         54.26624        39.33706         3.26404
H         53.80419        40.03838         3.78401
O         42.82244        40.48407         1.59412
H         42.69772        39.65022         2.09677
O         40.17698        32.99949         2.92563
H         40.07438        33.93084         3.22526
O         42.97198        27.96331        -1.82245
H         43.06721        27.16041        -2.37865
O         45.70188        41.65421        -2.17866
H         45.04066        41.14178        -2.69090
O         52.34327        27.76036        -2.96112
H         52.98440        28.38785        -3.35958
O         47.96647        31.93937        -0.83775
H         47.14011        32.36877        -1.14417
O         48.99337        25.53294        -2.53745
H         49.75745        26.09586        -2.79341
O         51.82743        46.19409         3.52282
H         50.90570        45.83874         3.58110
O         48.50278        40.13682        -1.44192
H         47.73612        40.21050        -2.05934
O         30.17876        31.76273         2.90327
H         31.06367        31.47931         3.25018
O         27.48806        31.31593         2.81276
H         28.35690        31.42819         3.27066
O         35.14389        28.14241         1.84427
H         35.92297        27.56462         2.00597
O         49.09016        30.52479         2.34366
H         49.22470        31.36723         2.83879
H         26.64645        27.69924        -1.20191
H         25.58179        29.77932        -0.57336
H         25.57470        31.84427         0.74641
H         25.74280        33.50082         1.89893
H         25.85154        35.94911         1.97364
H         26.01732        37.87223         2.29150
H         26.11374        40.28266         2.16731
H         26.11537        42.16748         1.85851
H         26.12464        44.59031         1.41799
H         27.29431        46.62318         0.72057
H         28.66111        26.29956        -1.45776
H         29.32860        47.76310        -0.04997
H         32.08604        23.68810        -1.42788
H         30.13176        25.12819        -1.30470
H         32.98144        49.75355        -1.20659
H         30.92182        48.63692        -0.55141
H         33.72469        22.33925        -1.30577
H         34.53606        50.55139        -2.16716
H         35.81576        21.06683        -1.33010
H         36.65819        51.72151        -2.39467
H         40.35709        19.33783        -1.13849
H         38.19599        20.21663        -0.65878
H         40.46809        53.84128        -2.54549
H         38.31776        52.65873        -2.46120
H         42.69471        19.31653        -1.42649
H         42.93237        53.83913        -2.34632
H         44.84686        20.42914        -1.17559
H         45.03583        52.65411        -1.90096
H         48.69145        22.63978        -1.18077
H         46.58528        21.39982        -1.14879
H         48.67762        50.55515        -0.81805
H         46.65198        51.72771        -1.47228
H         50.45058        23.60994        -0.73945
H         50.29486        49.56494        -0.37027
H         52.49787        24.94603        -0.89231
H         52.22860        48.45840         0.64479
H         56.11299        27.38602        -1.56644
H         54.11467        25.98524        -1.39594
H         55.66246        46.75407         1.77790
H         53.53262        47.88169         2.19107
H         57.15820        29.58563        -1.88247
H         57.11401        32.02743        -1.56577
H         56.99929        33.98735        -1.43430
H         57.00331        36.30112        -0.68212
H         57.10861        38.01220         0.14185
H         57.02738        40.41415         0.50155
H         57.12522        42.23881         1.30136
H         56.97544        44.69443         1.50585
