         429
 CSIRO Nanostructure Databank - Neutral Graphene Oxide Data Set
C          1.28623         2.29576         1.21182
C          1.28629         3.69296         1.21886
C          2.48655         1.59846         1.33965
C          2.48383         4.40807         1.34560
C          1.26233         6.62216         1.73370
C          1.25726         7.88544         2.17184
C          2.51511         5.92487         1.26560
C          2.47739         8.73070         2.45188
C          1.48819        10.29565         0.58373
C          1.64365        11.30472        -0.30904
C          2.48105        10.04146         1.64366
C          2.79603        12.19402        -0.29239
C          1.86025        13.74468        -2.01555
C          1.86210        15.01162        -2.70131
C          2.83654        13.40148        -1.11347
C          2.95043        15.84682        -2.65432
C          2.98855        17.15083        -3.26468
C          3.69872         2.29104         1.44988
C          3.70884         3.70280         1.43268
C          4.96679         1.49888         1.66135
C          4.98621         4.42244         1.51160
C          3.75922         6.49910         1.92171
C          3.79771         7.94867         2.29138
C          5.02828         5.79176         1.65577
C          5.08182         8.67941         2.05740
C          3.78770        10.77543         1.50986
C          3.86883        11.87021         0.51814
C          5.06464        10.07661         1.83370
C          5.02722        12.76168         0.71110
C          3.88040        14.46201        -0.78739
C          4.20554        15.30512        -2.01240
C          5.15722        13.95044        -0.14487
C          5.24479        16.34649        -1.68302
C          4.05225        17.99073        -3.10029
C          5.20442        17.63074        -2.29214
C          6.22321         2.27146         1.34509
C          6.22201         3.68231         1.39655
C          7.40207         1.57518         1.07825
C          7.44728         4.41139         1.22097
C          6.32001         6.47216         2.06537
C          6.29668         7.97654         1.89286
C          7.50695         5.80943         1.41526
C          7.51863         8.67430         1.70179
C          6.28460        10.77598         1.69656
C          6.22955        12.23982         1.45060
C          7.51603        10.09336         1.69621
C          7.50722        13.03416         1.41393
C          6.29803        14.69791        -0.14922
C          6.31794        15.97081        -0.87114
C          7.41171        14.46645         0.87203
C          7.44305        16.83474        -0.74573
C          6.25908        18.52651        -2.07480
C          7.40549        18.12909        -1.34585
C          8.60537         2.25535         0.76757
C          8.61876         3.70354         0.81356
C          9.78706         1.54300         0.48784
C          9.76970         4.42520         0.46322
C          8.69388         6.53280         1.14787
C          8.75821         7.94992         1.39957
C          9.83457         5.83807         0.61336
C          9.98587         8.62651         1.24312
C          8.80289        10.82128         2.05285
C          8.81273        12.35418         1.71061
C         10.08824        10.07364         1.63445
C         10.13059        13.13213         1.46306
C          8.74002        15.02361         0.40586
C          8.66434        16.33758        -0.19488
C          9.95960        14.41363         0.63136
C          9.82589        17.12274        -0.30639
C          8.55391        18.97560        -1.23586
C          9.74527        18.48719        -0.74112
C         10.96856         2.20881         0.08747
C         10.88538         3.67125        -0.14030
C         12.16946         1.53886        -0.12761
C         12.14399         4.42010        -0.49906
C         11.03464         6.56976         0.31860
C         11.10355         7.93348         0.67630
C         12.21782         5.88010        -0.21804
C         12.40403         8.63014         0.48176
C         11.33048        10.86602         1.25505
C         11.25712        12.28830         0.91500
C         12.51185        10.10061         0.73803
C         12.56821        13.02844         0.72252
C         11.17266        15.07789         0.17425
C         11.10046        16.47510        -0.18141
C         12.40269        14.39217         0.08048
C         12.25180        17.19198        -0.55377
C         10.96019        19.37671        -0.61256
C         12.26397        18.61143        -0.71165
C         13.38349         2.23000        -0.45839
C         13.37823         3.63420        -0.61068
C         14.60426         1.51901        -0.61527
C         14.60241         4.32281        -0.99328
C         13.39466         6.54078        -0.47098
C         13.38939         8.04405        -0.51663
C         14.60942         5.85097        -0.97335
C         14.75941         8.68374        -0.41401
C         13.62390        10.83936         0.09675
C         13.65280        12.21165         0.06206
C         14.79318        10.05389        -0.24671
C         14.81915        12.90723        -0.47066
C         13.54436        15.01302        -0.50997
C         13.45124        16.43004        -0.89771
C         14.75503        14.33175        -0.74014
C         14.74206        17.21064        -1.12352
C         13.46148        19.31013        -0.80007
C         14.73505        18.65575        -0.84152
C         15.84335         2.17970        -0.83390
C         15.87569         3.60376        -0.95518
C         17.05849         1.46143        -0.94916
C         17.09564         4.30597        -1.08932
C         15.93310         6.51232        -0.87452
C         15.97572         7.92812        -0.65277
C         17.11401         5.76920        -1.04158
C         17.22751         8.57845        -0.70502
C         16.06041        10.79457        -0.29286
C         15.99378        12.21576        -0.65580
C         17.32517        10.03348        -0.52147
C         17.15240        12.82081        -1.38702
C         15.97792        15.02461        -1.12093
C         16.00917        16.47212        -1.08910
C         17.17544        14.31997        -1.27731
C         17.19073        17.19416        -1.04086
C         15.94327        19.29523        -0.59365
C         17.19625        18.59919        -0.68537
C         18.27753         2.14193        -1.13184
C         18.29476         3.56625        -1.16658
C         19.51238         1.42459        -1.26720
C         19.60831         4.23928        -1.44415
C         18.39124         6.43615        -1.02958
C         18.43352         7.86004        -0.90283
C         19.60509         5.70745        -1.10341
C         19.69119         8.55469        -0.95294
C         18.52843        10.75916        -0.99428
C         18.48533        12.13007        -1.17695
C         19.76198        10.01046        -1.04499
C         19.70484        12.87334        -1.36684
C         18.43154        14.99198        -1.58579
C         18.45901        16.55322        -1.40430
C         19.70545        14.24821        -1.45740
C         19.70632        17.19576        -1.03367
C         18.41983        19.21503        -0.41577
C         19.66874        18.51103        -0.50980
C         20.77002         2.03210        -1.09843
C         20.80189         3.46656        -0.90698
C         21.96034         1.22748        -1.30188
C         21.97404         4.20949        -0.61817
C         20.84048         6.38466        -1.03517
C         20.87035         7.81304        -1.02899
C         22.05495         5.62998        -0.83699
C         22.16164         8.50545        -1.18852
C         20.96818        10.68321        -1.20786
C         20.98360        12.12401        -1.65938
C         22.22811         9.98679        -1.15029
C         22.23487        12.85564        -1.24617
C         20.99270        14.97845        -1.47710
C         20.98474        16.50476        -1.22302
C         22.23212        14.22979        -1.12260
C         22.19701        17.10550        -0.65727
C         20.89454        19.15815        -0.20634
C         22.13592        18.48210        -0.25867
C         23.18383         1.54258        -0.71016
C         23.15601         3.57891        -0.14432
C         24.51881         1.25579        -1.07235
C         24.43793         4.17539        -0.16834
C         23.28602         6.28649        -0.58335
C         23.41304         7.71472        -0.92536
C         24.45033         5.59859        -0.22611
C         24.65291         8.44325        -0.60728
C         23.44654        10.63276        -1.16149
C         23.54356        12.12480        -1.43707
C         24.71038         9.86436        -1.02788
C         24.69980        12.82233        -0.76038
C         23.42443        14.94214        -0.73307
C         23.39228        16.35274        -0.51272
C         24.64064        14.19275        -0.49514
C         24.57367        17.01702        -0.02115
C         23.34566        19.16075         0.03765
C         24.56163        18.46426         0.11896
C         25.66460         2.02358        -0.69797
C         25.64577         3.39995        -0.22837
C         26.92320         1.45458        -1.06234
C         26.88124         4.14639        -0.13346
C         25.64536         6.32298         0.32572
C         25.75549         7.77778        -0.12196
C         26.90211         5.50879         0.10453
C         26.97937         8.49593         0.14264
C         26.00880        10.61760        -0.77331
C         26.06018        12.15386        -0.85015
C         27.08934         9.87922        -0.08047
C         27.08077        12.77492         0.07459
C         25.80644        14.89197         0.03868
C         25.72948        16.28637         0.29125
C         27.00284        14.16683         0.33571
C         26.83868        17.00027         1.03258
C         25.78232        19.15353         0.29436
C         26.96388        18.46558         0.66601
C         28.15801         2.10569        -0.92948
C         28.20989         3.41002        -0.16595
C         29.34914         1.52432        -1.38356
C         29.32119         4.30954        -0.67679
C         28.17225         6.19663         0.41649
C         28.16519         7.76494         0.59060
C         29.42342         5.63031        -0.01498
C         29.45794         8.44993         0.57236
C         28.23258        10.59764         0.39547
C         28.18795        12.01617         0.49985
C         29.44572         9.86545         0.68774
C         29.30544        12.70737         1.16695
C         28.18152        14.87441         0.82189
C         28.16045        16.27844         0.98206
C         29.37812        14.17463         1.10661
C         29.33578        16.96582         1.31272
C         28.13213        19.13289         0.95248
C         29.27046        18.44407         1.64428
C         30.59749         2.22735        -1.45196
C         30.53896         3.71329        -1.30656
C         31.77789         1.57305        -1.73683
C         31.80742         4.58369        -1.34498
C         30.66270         6.31091         0.12306
C         30.67409         7.72099         0.54813
C         31.85022         5.66713        -0.26377
C         31.88727         8.42944         0.68991
C         30.65965        10.53181         0.98479
C         30.60853        11.95033         1.37457
C         31.88629         9.82717         0.96611
C         31.84664        12.72773         1.48941
C         30.58192        14.85433         1.42603
C         30.54911        16.26899         1.48812
C         31.84547        14.12077         1.58976
C         31.77514        17.04333         1.78215
C         30.56563        19.15383         1.38137
C         31.78091        18.49383         1.45133
C         33.07471         2.26810        -1.80612
C         33.08794         3.74168        -1.47399
C         34.35231         1.49995        -1.72944
C         34.29511         4.23196        -0.78862
C         33.16065         6.32904        -0.05240
C         33.18437         7.74621         0.48738
C         34.31380         5.37166        -0.04530
C         34.39059         8.47169         0.98526
C         33.12271        10.54733         1.18459
C         33.08614        11.95406         1.61287
C         34.36091         9.90256         1.10312
C         34.40719        12.72304         1.66087
C         33.09859        14.83525         1.65259
C         33.09888        16.30044         1.79159
C         34.35001        14.18899         1.55581
C         34.32467        17.04554         1.47926
C         33.02379        19.15241         1.29613
C         34.27284        18.46680         1.31721
C         35.54641         2.09538        -1.43151
C         35.56341         3.41604        -0.70550
C         36.83302         1.42584        -1.46281
C         36.77092         4.30369        -1.00309
C         35.61056         5.75927         0.49482
C         35.60551         7.85912         1.19578
C         36.77138         5.55337        -0.19402
C         36.87555         8.48266         0.96763
C         35.62381        10.61061         1.19515
C         35.64119        12.01793         1.29874
C         36.86264         9.91637         1.01540
C         36.83988        12.75469         1.13805
C         35.57295        14.89896         1.41886
C         35.55363        16.34793         1.35882
C         36.82214        14.19788         1.23670
C         36.75657        17.06900         1.19903
C         35.48091        19.16370         1.08605
C         36.72360        18.48814         1.04612
C         38.02023         2.10054        -1.25605
C         38.06749         3.59190        -1.24012
C         39.23741         1.39662        -0.94126
C         39.41101         4.30128        -1.02304
C         37.98154         6.40799        -0.08190
C         38.02710         7.75901         0.58236
C         39.29738         5.73835        -0.47074
C         39.26982         8.47934         0.50480
C         38.07590        10.63107         0.87305
C         38.06514        12.06051         0.93094
C         39.29624         9.90444         0.68073
C         39.28851        12.78488         0.80522
C         38.03446        14.90025         1.10340
C         38.07688        16.37592         1.40793
C         39.26230        14.21683         0.85436
C         39.23543        17.09392         0.76522
C         37.93131        19.19285         0.78835
C         39.15666        18.50503         0.57413
C         40.32514         2.03321        -0.39963
C         40.39905         3.45920        -0.24915
C         41.43212         4.07715         0.42329
C         40.50826         6.33259         0.13663
C         40.50568         7.77683         0.33217
C         41.52064         5.49775         0.56168
C         41.71175         8.49868         0.36526
C         40.52875        10.62131         0.61031
C         40.52123        12.07876         0.66096
C         41.72419         9.88576         0.47710
C         41.70412        12.83391         0.55222
C         40.47736        14.94548         0.65217
C         40.43518        16.40474         0.50538
C         41.67579        14.22817         0.52702
C         41.55504        17.13328         0.04370
C         40.30988        19.20670         0.13107
C         41.48877        18.51976        -0.12704
O         32.42235        16.74410         3.04971
O          8.07733        13.05339         2.76381
O         29.65980        12.17772         2.48690
O         13.91617        16.76564        -2.25204
O          2.80205        11.15528         2.54457
O         14.41381         5.14693        -2.23435
O         22.95572         7.96504        -2.30695
O         37.31344         4.23700        -2.33559
O         11.08462        10.41134         2.66066
O         18.41312        15.90839        -2.71835
O         21.18732        15.90864        -2.56737
O         11.13849         4.07360        -1.53276
O         33.78888        12.19985         2.88425
O         16.96670        10.48918         0.84673
O         35.60239         6.54086         1.64417
O         13.01773         9.10894         1.70436
O         28.08590         6.85290         1.73509
O         33.23664         3.31596        -2.86915
O         29.46803         4.29887        -2.12853
O         25.70711        10.06660        -2.09842
O          5.21474        13.00404         2.17906
O         23.05018         2.34494         0.46366
O         33.38249         7.46421        -0.97932
O         38.60993         6.58921        -1.42041
O          3.77763         6.90108         3.33390
O         10.54363        13.61692         2.78629
H          9.70507        13.81394         3.27303
O          6.44636         6.22703         3.50651
H          5.58163         6.49799         3.90477
O          2.68819         6.26187        -0.15167
H          2.00239         5.78000        -0.66011
O         21.03180        12.04407        -3.12980
H         21.97528        11.86739        -3.37510
O          7.00660        15.29008         2.00199
H          6.29373        14.79514         2.46954
O         35.74854         3.05429         0.70693
H         35.05624         2.40402         0.94960
O         26.45779        16.98995         2.44883
H         27.15890        17.49390         2.93004
O          4.82022        14.40043        -2.98167
H          5.01073        14.91764        -3.79205
O         25.41579         6.37693         1.77750
H         26.28867         6.59317         2.19055
O          8.76011        10.74584         3.49538
H          9.68864        10.84810         3.81268
O          4.92523         0.26631         0.93221
H          4.90074         0.47644        -0.02355
O         19.77778         4.18143        -2.91724
H         20.56286         4.72641        -3.14141
O         10.90273        20.05823         0.66008
H         10.82437        19.38109         1.36344
O         28.56081         3.08344         1.21101
H         27.81416         2.58222         1.60127
O          2.37286         9.07010         3.84683
H          2.69512         9.99782         3.94928
O         16.86423        12.56551        -2.82085
H         17.52276        13.06905        -3.34808
O         28.96994        18.50160         3.09865
H         29.74265        18.12067         3.57061
O         26.55400        12.47769        -2.19129
H         26.12906        11.82010        -2.79514
O         31.74313         5.38882        -2.54600
H         32.13826         4.85476        -3.27316
O         39.99737         4.45261        -2.34099
H         39.33297         4.94655        -2.87356
O          3.27206        15.33431         0.20104
H          3.13279        14.81483         1.02096
O         13.10248        13.30273         2.06433
H         12.32917        13.52332         2.64250
O         38.32904        16.45401         2.87126
H         38.31954        17.40476         3.11371
O         23.80141        12.20267        -2.90734
H         24.03398        13.13579        -3.10873
O         12.85604         8.39299        -1.83520
H         13.32632         7.85486        -2.50761
H          0.33765         1.75009         1.11517
H          0.32831         4.22260         1.12342
H          2.49599         0.49962         1.34935
H          0.30039         6.09741         1.63151
H          0.30202         8.33784         2.48196
H          0.63363         9.60803         0.49440
H          0.86973        11.45933        -1.07362
H          1.01482        13.06800        -2.20842
H          0.95781        15.30963        -3.25297
H          2.11217        17.48223        -3.84253
H          5.00889         1.21163         2.75105
H          4.03826        18.98954        -3.56092
H          7.38349         0.47569         1.06434
H          6.22730        19.52861        -2.52773
H          9.78834         0.44613         0.56963
H          8.49574        20.00796        -1.61196
H         12.20689         0.44762         0.00343
H         10.93389        20.17605        -1.39616
H         14.59466         0.42283        -0.53117
H         13.43640        20.40995        -0.77727
H         17.04732         0.36330        -0.89585
H         15.95175        20.36380        -0.33206
H         19.46581         0.33367        -1.40277
H         18.43917        20.27139        -0.11134
H         21.89005         0.39318        -2.01497
H         20.87823        20.21313         0.10371
H         24.69480         0.40875        -1.75289
H         23.32484        20.24443         0.22086
H         26.91179         0.46573        -1.54761
H         25.79787        20.25133         0.21845
H         29.32173         0.48799        -1.75588
H         28.19470        20.22110         0.79648
H         31.77432         0.47658        -1.83359
H         30.54687        20.24007         1.20586
H         34.33941         0.47158        -2.12541
H         33.02511        20.23592         1.10747
H         36.85308         0.33013        -1.57551
H         35.45430        20.25227         0.93216
H         39.23145         0.29873        -1.01225
H         37.89792        20.28373         0.65314
H         41.17451         1.43352        -0.03821
H         42.21097         3.45927         0.89487
H         42.39696         5.91759         1.07586
H         42.66331         7.96141         0.24743
H         42.69254        10.40272         0.44747
H         42.67627        12.33248         0.45592
H         42.62745        14.76334         0.40696
H         42.49567        16.61680        -0.18949
H         40.25438        20.29455        -0.01723
H         42.37584        19.06515        -0.47821
