         429
 CSIRO Nanostructure Databank - Neutral Graphene Oxide Data Set
C          2.86082         2.65635        -4.48483
C          2.68758         3.99890        -4.12797
C          3.82653         1.87831        -3.86573
C          3.49927         4.60566        -3.14066
C          2.30182         6.80540        -3.30576
C          2.17613         8.13616        -2.96449
C          3.35796         6.00675        -2.79637
C          3.12761         8.78314        -2.12927
C          1.94111        10.99655        -2.32371
C          1.83204        12.32851        -2.09848
C          3.02318        10.18992        -1.79148
C          2.74132        13.02740        -1.17824
C          1.78647        15.29690        -1.64787
C          1.84751        16.68307        -1.59856
C          2.87039        14.50593        -1.22232
C          3.03175        17.32693        -1.18652
C          3.05079        18.76522        -0.98415
C          4.64988         2.42856        -2.83761
C          4.49575         3.82483        -2.48948
C          5.55096         1.61770        -2.15011
C          5.36606         4.42055        -1.52204
C          4.29245         6.60962        -1.91199
C          4.20164         8.01344        -1.61400
C          5.28424         5.80274        -1.27413
C          5.23856         8.65602        -0.85479
C          4.03450        10.80394        -1.04776
C          3.91981        12.22484        -0.65379
C          5.20105        10.06627        -0.64239
C          5.14497        12.95517        -0.26263
C          4.06982        15.12406        -0.79347
C          4.15349        16.53693        -0.83909
C          5.21455        14.33374        -0.32169
C          5.43479        17.19725        -0.56015
C          4.13934        19.42225        -0.51592
C          5.43605        18.74110        -0.38784
C          6.36183         2.11001        -1.00191
C          6.40794         3.62072        -0.89291
C          7.73524         1.52958        -1.10005
C          7.41110         4.19073        -0.15324
C          6.17142         6.42312        -0.27472
C          6.29209         7.89755        -0.27576
C          7.29236         5.58153         0.31410
C          7.40403         8.54298         0.27783
C          6.30545        10.70902        -0.03481
C          6.21912        12.14631         0.42069
C          7.45541         9.96804         0.30379
C          7.55643        12.83782         0.47041
C          6.43625        15.01570         0.10030
C          6.52529        16.42916         0.04938
C          7.59252        14.25499         0.46432
C          7.67733        17.12016         0.49989
C          6.53093        19.31232         0.37769
C          7.67614        18.56256         0.65408
C          8.78052         2.09532        -0.36797
C          8.50441         3.33900         0.46305
C          9.97375         1.41358        -0.16009
C          9.79089         4.10940         0.73806
C          8.49955         6.26091         0.89352
C          8.53036         7.79049         0.87873
C          9.77993         5.53825         0.92673
C          9.83775         8.46223         0.96615
C          8.68654        10.64215         0.66708
C          8.72500        12.07661         0.68243
C          9.86762         9.89253         0.89226
C          9.98299        12.75255         0.88419
C          8.82361        14.92982         0.79168
C          8.83970        16.37931         0.87913
C          9.98669        14.18137         1.01222
C         10.00408        17.07347         1.24291
C          8.85327        19.20991         1.15122
C         10.02120        18.49510         1.37007
C         10.91985         1.88195         0.90424
C         10.94906         3.39379         0.92866
C         12.26823         1.25600         0.73684
C         12.16421         4.04409         1.53657
C         10.98347         6.25033         1.19332
C         11.00083         7.70376         1.20005
C         12.20603         5.53826         1.36876
C         12.23895         8.38542         1.47859
C         11.11591        10.57396         1.12597
C         11.16771        12.00229         1.02981
C         12.24425         9.81030         1.50652
C         12.47427        12.69825         1.12507
C         11.24069        14.86402         1.40252
C         11.26005        16.35244         1.50326
C         12.54513        14.21014         1.01247
C         12.55269        17.09497         1.18651
C         11.27059        19.14393         1.76032
C         12.47119        18.51646         1.71494
C         13.46263         1.94961         0.93523
C         13.46439         3.36473         1.19137
C         14.70398         1.24906         0.87706
C         14.67888         4.05764         1.30061
C         13.43500         6.21746         1.56223
C         13.42886         7.63107         1.70415
C         14.70341         5.49966         1.52732
C         14.68357         8.28955         2.10211
C         13.43388        10.51238         2.02707
C         13.60895        11.95952         1.72617
C         14.71159         9.76288         2.21705
C         14.66777        12.67367         2.54035
C         13.77237        14.86368         1.65302
C         13.78422        16.32539         1.63720
C         14.87061        14.12532         2.05477
C         14.93259        17.03492         1.92401
C         13.72643        19.29427         2.04400
C         14.99901        18.47952         1.97225
C         15.91722         1.90977         1.08689
C         15.90263         3.32705         1.29063
C         17.15744         1.18555         0.98569
C         17.15061         4.04082         1.50043
C         15.93181         6.17849         1.53607
C         16.01185         7.59807         1.93435
C         17.17820         5.49936         1.37708
C         17.25154         8.38821         1.68451
C         16.01234        10.49020         2.19686
C         15.90186        11.78807         2.63270
C         17.27816         9.81303         1.84163
C         17.72072        12.87720         2.14094
C         16.18094        14.82368         2.24247
C         16.19704        16.30721         2.13958
C         17.41670        14.13725         1.74859
C         17.45202        16.98802         1.72455
C         16.21356        19.12619         2.00605
C         17.46903        18.44382         1.79878
C         18.39047         1.81588         0.95492
C         18.47722         3.26916         1.23737
C         19.61522         1.12088         0.75831
C         19.57123         4.05303         0.70570
C         18.38797         6.19869         1.21411
C         18.39999         7.65121         1.27194
C         19.58989         5.47204         0.81127
C         19.58314         8.35435         0.90838
C         18.45928        10.53790         1.42675
C         18.62005        11.98996         1.43249
C         19.56586         9.78565         0.87825
C         19.59627        12.67105         0.68317
C         18.30332        14.85129         0.77028
C         18.50469        16.28221         1.22625
C         19.59735        14.10241         0.51360
C         19.86051        16.90651         1.05278
C         18.62469        19.11761         1.44812
C         19.79350        18.41695         1.00232
C         20.80389         1.82295         0.52906
C         20.71394         3.27312         0.19811
C         22.05097         1.18160         0.42135
C         21.97036         4.01159        -0.16762
C         20.74701         6.20493         0.43171
C         20.75424         7.62757         0.48499
C         21.90910         5.53189        -0.30381
C         21.92722         8.35832         0.13564
C         20.68563        10.45368         0.30606
C         20.61209        11.89103        -0.02682
C         21.87118         9.74998         0.02644
C         21.77247        12.61684        -0.67585
C         20.68809        14.79080        -0.02546
C         20.61817        16.31744        -0.15237
C         21.86224        14.08737        -0.47423
C         21.96121        17.02020        -0.36245
C         20.90434        19.08437         0.56372
C         22.06597        18.42345        -0.00517
C         23.26757         1.89861         0.31372
C         23.25168         3.34743         0.15948
C         24.50310         1.22911         0.42285
C         24.37859         4.09484         0.42985
C         23.22593         6.21248        -0.00827
C         23.20790         7.68099        -0.30784
C         24.38694         5.55122         0.31229
C         24.45260         8.39853         0.13642
C         23.12100        10.54493        -0.19576
C         23.00567        11.77018        -1.08312
C         24.42850         9.85533        -0.04926
C         24.30823        12.58009        -1.19514
C         23.02093        14.78819        -0.79579
C         23.05635        16.23400        -0.79823
C         24.28058        14.08785        -1.16756
C         24.26207        16.82666        -1.28298
C         23.21675        19.23204        -0.01588
C         24.40589        18.93482        -0.75053
C         25.70930         1.93930         0.63108
C         25.60233         3.39640         0.86364
C         26.95855         1.31880         0.68354
C         26.88721         4.19212         0.99318
C         25.65872         6.28399         0.44136
C         25.64733         7.72948         0.25698
C         26.85940         5.64472         0.69667
C         26.90477         8.47114         0.25438
C         25.68806        10.50083        -0.45052
C         25.63250        11.86129        -1.01689
C         26.87899         9.88970        -0.11204
C         26.89887        12.68326        -0.83859
C         25.54623        14.84349        -0.96594
C         25.55458        16.24080        -1.11758
C         26.76430        14.14270        -0.61658
C         26.80630        17.01197        -1.13031
C         25.72395        19.21613        -0.54558
C         26.77382        18.52564        -1.41916
C         28.18235         2.05748         0.79154
C         28.14929         3.45580         0.88575
C         29.44477         1.36810         0.63365
C         29.38870         4.23531         0.95753
C         28.12495         6.36271         0.62780
C         28.10274         7.79999         0.42318
C         29.33518         5.68750         0.68823
C         29.37461         8.58799         0.63340
C         28.14228        10.62294        -0.19206
C         28.14103        12.03829        -0.39233
C         29.34262         9.94877        -0.00784
C         29.34162        12.81000        -0.38645
C         28.08404        14.95118        -0.53945
C         28.02255        16.37605        -0.92367
C         29.32710        14.19962        -0.62712
C         29.30580        17.06197        -1.00912
C         28.10350        19.19308        -1.22572
C         29.29596        18.51565        -1.11261
C         30.65614         2.02981         0.56284
C         30.69786         3.48605         0.81721
C         31.90323         1.35950         0.31283
C         31.91883         4.24035         0.47094
C         30.58107         6.35051         0.15401
C         30.65796         7.83213         0.38707
C         31.88515         5.62496         0.39990
C         31.85622         8.48537         0.29895
C         30.60110        10.66376        -0.24660
C         30.61103        12.12859        -0.27424
C         31.90385         9.93828        -0.02466
C         31.83111        12.82377        -0.24842
C         30.58838        14.87906        -1.07722
C         30.51841        16.38345        -0.94955
C         31.83812        14.24511        -0.49049
C         31.76338        17.10387        -0.90237
C         30.54079        19.22036        -1.14149
C         31.75852        18.55185        -1.04722
C         33.10641         2.03833         0.18305
C         33.13713         3.50173         0.22613
C         34.37299         1.35260         0.13403
C         34.32211         4.18014         0.05021
C         33.10771         6.36767         0.34530
C         33.12102         7.76486         0.28720
C         34.36977         5.61517         0.35867
C         34.35842         8.50657         0.26501
C         33.10193        10.74188         0.25530
C         33.06375        12.11908         0.08615
C         34.34325         9.96903         0.49833
C         34.29293        12.93434         0.20496
C         33.01356        15.00528        -0.42874
C         32.96567        16.43195        -0.64685
C         34.28440        14.34854        -0.20490
C         34.19279        17.22668        -0.47260
C         32.99211        19.26323        -1.14779
C         34.21736        18.62863        -0.93983
C         35.57025         2.02360        -0.03811
C         35.53861         3.46571        -0.48430
C         36.84087         1.38956         0.09352
C         36.83149         4.22424        -0.28567
C         35.65204         6.39049         0.17981
C         35.58593         7.86123         0.11144
C         36.79315         5.70992        -0.55208
C         36.81575         8.57651        -0.15410
C         35.67939        10.71288         0.33560
C         35.65038        12.20404         0.20249
C         36.83287         9.95833        -0.15259
C         36.80013        12.90203        -0.37788
C         35.50365        15.01302        -0.32447
C         35.52927        16.48480        -0.36396
C         36.75606        14.31029        -0.47442
C         36.73599        17.17677        -0.81883
C         35.46284        19.28320        -1.07349
C         36.69327        18.59273        -1.04047
C         38.02987         2.10632         0.04659
C         38.02145         3.55919        -0.12020
C         39.29726         1.44074         0.19936
C         39.28632         4.28553        -0.09157
C         38.08902         6.44375        -0.32527
C         38.07211         7.83532        -0.32358
C         39.31388         5.71031        -0.20488
C         39.31955         8.56585        -0.33037
C         38.00790        10.67275        -0.76002
C         38.02704        12.17461        -0.57952
C         39.31907         9.98547        -0.44954
C         39.20454        12.85281        -0.78455
C         37.93236        15.03875        -0.85313
C         37.91192        16.42655        -1.04059
C         39.15492        14.26919        -1.30114
C         39.13577        17.11200        -1.60587
C         37.93131        19.28315        -1.23891
C         39.13826        18.60654        -1.36870
C         40.47063         2.13624         0.20421
C         40.49308         3.57360         0.06968
C         41.71968         4.28541         0.11190
C         40.55088         6.41361        -0.13154
C         40.55201         7.86077        -0.22275
C         41.74666         5.66354         0.01918
C         41.75073         8.61491        -0.19466
C         40.51777        10.70388        -0.42896
C         40.52030        12.22183        -0.38931
C         41.73071         9.99689        -0.26957
C         41.69180        12.90393        -1.04400
C         40.45528        15.02824        -1.16137
C         40.44319        16.42121        -1.25413
C         41.66676        14.24594        -1.25173
C         41.62386        17.20801        -1.20477
C         40.37428        19.29493        -1.38894
C         41.58492        18.59883        -1.31963
O         23.81654        10.70647         1.07893
O         35.31444         5.87028         1.49224
O         11.25944        15.51612         2.71206
O         24.25136        13.34108        -2.44825
O         15.38912         7.72685         3.26448
O         26.50704        12.14441        -2.14949
O         34.86946        17.07157         0.81546
O         26.08795         3.82414         2.18222
O         35.10157        12.79844         1.41584
O         17.01247        12.37046         3.23890
O          2.74512        12.50212         0.19406
O         16.32109        15.63425         3.46486
O          6.06319         5.82523         1.06559
O         20.61814        12.22065        -1.47653
O         18.02005         3.57760         2.58577
O         13.85865        10.15576         3.36951
O          8.20283         7.03147         2.09515
O         30.20158         3.87260         2.15060
O         31.39033        10.11459        -1.40586
O         13.58474        12.15139         0.27932
O         27.31182        14.59205         0.66373
O         24.12546        18.07907        -1.86553
O         35.17551        10.30727         1.64553
O         21.14681         3.40902        -1.22755
O          5.87700        18.08521        -1.63122
O          7.98702         2.89795         1.74310
H          7.20112         2.33118         1.54874
O         29.40590         8.88301         2.08554
H         28.52766         9.23844         2.34129
O         10.44759         1.42834         2.22061
H         10.90020         2.00077         2.88425
O         36.46540         5.88864        -1.98484
H         37.29210         5.75893        -2.49727
O         19.79075        16.60328        -1.32699
H         20.30379        16.35144        -2.12421
O         21.61365         5.80693        -1.71619
H         21.15659         4.99587        -2.05570
O         20.64189        16.53710         2.22644
H         20.17897        16.88100         3.01919
O         12.68604        14.48620        -0.41844
H         13.34204        13.83515        -0.76304
O          5.76247         1.63893         0.28023
H          4.91355         2.11684         0.39939
O         26.46974        18.72156        -2.82491
H         25.52072        18.48522        -2.95506
O         11.98369         3.79192         2.99875
H         11.28391         4.40618         3.31249
O         39.01661        16.93737        -3.07484
H         39.76517        17.42491        -3.48184
O         30.69709        14.63525        -2.53656
H         30.70223        13.66263        -2.67062
O         17.61767        14.95147        -0.51704
H         18.19065        15.52172        -1.08891
O         13.61090        19.88281         3.35325
H         13.56022        19.15833         4.01046
O         23.26894         7.84291        -1.76681
H         22.60746         7.21303        -2.14914
O          5.77483        12.04315         1.82663
H          5.59223        12.95145         2.14848
O         22.76381        11.22472        -2.38925
H         22.88633        11.95139        -3.03966
O         40.64461        12.53956         1.04756
H         40.71214        13.51484         1.13031
O         35.33257         3.40999        -1.94536
H         35.50940         4.32296        -2.28575
O         30.40005         6.23868        -1.32351
H         31.06446         6.82414        -1.74824
O         38.95411        14.11774        -2.76163
H         38.91632        15.03902        -3.12961
O         37.81470        10.52441        -2.21797
H         38.46064        11.11288        -2.66604
O         12.64014        17.21925        -0.26075
H         12.71507        16.30143        -0.62729
O         14.12066        12.83687         3.87186
H         14.84086        13.15768         4.45556
H          2.22400         2.21970        -5.26686
H          1.92047         4.58632        -4.64928
H          3.95465         0.82243        -4.14301
H          1.54673         6.36023        -3.96724
H          1.32420         8.69658        -3.37024
H          1.21662        10.52740        -3.00235
H          1.06109        12.90448        -2.63009
H          0.85434        14.81364        -1.97080
H          0.96939        17.28422        -1.87341
H          2.10348        19.30660        -1.12579
H          5.60983         0.54826        -2.40322
H          4.07767        20.48633        -0.24371
H          7.89225         0.59131        -1.65274
H          6.47429        20.36416         0.69543
H         10.18024         0.47920        -0.70432
H          8.84168        20.30196         1.28191
H         12.30524         0.16529         0.59326
H         11.22363        20.19936         2.07046
H         14.69709         0.16731         0.67939
H         13.81112        20.15419         1.32674
H         17.10673         0.09934         0.81884
H         16.23021        20.22536         2.06265
H         19.62610         0.02160         0.79646
H         18.62748        20.21754         1.40410
H         22.09697         0.09129         0.56235
H         20.93401        20.18267         0.63901
H         24.52119         0.12904         0.41186
H         23.18014        20.17261         0.55443
H         27.01639         0.22772         0.55308
H         26.04142        19.84519         0.29682
H         29.41856         0.27763         0.48690
H         28.11949        20.28968        -1.31922
H         31.89774         0.25988         0.25842
H         30.52681        20.31352        -1.26354
H         34.38391         0.26862         0.32934
H         32.96749        20.33587        -1.39106
H         36.87504         0.30631         0.28904
H         35.47017        20.35725        -1.31186
H         39.30084         0.34690         0.31523
H         37.92931        20.38370        -1.21916
H         41.42831         1.60897         0.32395
H         42.65795         3.72534         0.23440
H         42.71536         6.17811         0.07247
H         42.71944         8.10757        -0.09357
H         42.67863        10.54850        -0.20405
H         42.63374        12.35340        -1.17898
H         42.59183        14.75229        -1.56841
H         42.59308        16.71744        -1.03963
H         40.37387        20.39423        -1.36312
H         42.52710        19.16363        -1.28600
