         600
 CSIRO Nanostructure Databank - Neutral Graphene Oxide Data Set
C         22.95199        27.54529        -0.48227
C         22.94798        28.87534        -0.71294
C         23.03348        31.80002        -0.36921
C         23.02035        33.16512        -0.32953
C         23.04437        36.15563        -0.34118
C         23.01319        37.40407         0.19248
C         23.15715        39.95333         1.76118
C         23.20805        41.22026         2.37316
C         23.12109        44.93802         2.15221
C         23.06293        46.09468         1.40201
C         25.36098        24.67418        -0.17699
C         24.17246        25.39433        -0.26283
C         25.43432        27.47943        -0.47109
C         24.18532        26.78776        -0.41822
C         25.46433        28.89137        -0.63137
C         24.21057        29.62142        -1.05377
C         25.47398        31.76263        -0.62770
C         24.22801        31.07641        -0.65975
C         25.50043        33.18428        -0.56306
C         24.21404        33.93061        -0.82812
C         25.47981        35.98155        -0.15714
C         24.25686        35.36355        -0.37228
C         25.45709        37.44290         0.08930
C         24.26122        37.92923         0.86707
C         25.52130        40.16035         1.15258
C         24.29276        39.40934         1.18527
C         25.55336        41.52480         1.62625
C         24.37609        41.95610         2.31922
C         25.51665        44.63954         1.59615
C         24.35147        44.25387         2.25009
C         25.49055        45.92271         0.97040
C         24.25376        46.62712         0.84728
C         25.41211        48.53969        -0.10619
C         24.24001        47.91378         0.23213
C         27.88232        23.17497        -0.01305
C         27.86215        24.58635        -0.12227
C         26.61544        25.32254        -0.20736
C         27.89909        27.44180        -0.32685
C         26.65231        26.74283        -0.33045
C         27.91528        28.86438        -0.38877
C         26.68533        29.59103        -0.53833
C         27.94132        31.72339        -0.42439
C         26.70825        31.02739        -0.56623
C         27.95672        33.14915        -0.35076
C         26.72264        33.87703        -0.41271
C         27.97346        36.01387        -0.10664
C         26.73266        35.30362        -0.26548
C         27.99475        37.42760         0.10647
C         26.73827        38.19260         0.16522
C         27.95395        40.24698         0.83819
C         26.73710        39.54990         0.74841
C         27.94133        41.65756         1.12723
C         26.73333        42.32216         1.45994
C         27.98301        44.51660         1.12637
C         26.80198        43.83453         1.79776
C         27.95685        45.87701         0.73987
C         26.70566        46.58173         0.59497
C         27.91314        48.63596        -0.07905
C         26.67445        47.91258         0.12417
C         27.92693        50.01558        -0.38662
C         30.32125        23.13702        -0.01287
C         29.07076        22.47286         0.03867
C         30.33413        24.55827        -0.09111
C         29.10221        25.28354        -0.15346
C         30.36402        27.41412        -0.23744
C         29.12470        26.71458        -0.23980
C         30.38034        28.83834        -0.26159
C         29.15405        29.56531        -0.32308
C         30.40104        31.70061        -0.19625
C         29.16916        30.99516        -0.31764
C         30.40207        33.11363        -0.17664
C         29.19424        33.84810        -0.22377
C         30.43596        35.99057         0.08080
C         29.20287        35.28995        -0.10742
C         30.43458        37.40147         0.30496
C         29.19694        38.11857         0.35050
C         30.42096        40.22496         0.73951
C         29.19456        39.53829         0.62479
C         30.41844        41.65572         0.90460
C         29.19900        42.36270         1.05696
C         30.41779        44.49110         0.76973
C         29.19611        43.79708         1.01715
C         30.41571        45.89223         0.53620
C         29.17023        46.56947         0.42824
C         30.38588        48.66614        -0.10449
C         29.15426        47.95837         0.08071
C         30.36476        50.06461        -0.37441
C         29.11616        50.71227        -0.51207
C         32.74137        20.25501        -0.14060
C         31.58984        20.97434        -0.10361
C         32.78131        23.11914         0.06366
C         31.56931        22.41207         0.03461
C         32.80986        24.54228        -0.05471
C         31.58086        25.26242        -0.12125
C         32.83844        27.37968        -0.18481
C         31.59771        26.68496        -0.18567
C         32.85370        28.81048        -0.17794
C         31.62752        29.54064        -0.19910
C         32.87993        31.63072         0.09645
C         31.64655        30.96086        -0.11791
C         32.82763        33.09258         0.50055
C         31.72911        33.82286        -0.27060
C         32.88545        35.96208         0.28996
C         31.67740        35.28953         0.08773
C         32.89926        37.38534         0.44998
C         31.66536        38.09985         0.46942
C         32.90494        40.21128         0.73960
C         31.66568        39.51650         0.64427
C         32.90511        41.64157         0.84186
C         31.66361        42.35784         0.88379
C         32.86916        44.51698         0.79260
C         31.65530        43.78407         0.81156
C         32.88717        45.90505         0.53947
C         31.64866        46.59699         0.35094
C         32.86842        48.67231        -0.22771
C         31.63664        47.97785         0.01923
C         32.83155        50.05167        -0.55015
C         31.61396        50.78300        -0.52963
C         32.85741        52.89403        -0.78566
C         31.65930        52.19355        -0.65872
C         35.32059        18.80736        -0.38941
C         35.30739        20.18435        -0.16255
C         34.03525        20.87060         0.16969
C         35.31838        23.10207        -0.01999
C         34.05144        22.39981         0.24886
C         35.30318        24.50858        -0.12645
C         34.05718        25.23842        -0.10126
C         35.31516        27.37164        -0.21645
C         34.06916        26.65650        -0.16294
C         35.33540        28.78726        -0.17874
C         34.09186        29.50694        -0.11021
C         35.37430        31.58301         0.36266
C         34.08297        30.91419         0.08904
C         35.39221        33.09629         0.51197
C         34.13640        33.83904         0.36125
C         35.39040        35.94748         0.46639
C         34.14222        35.21858         0.33323
C         35.36149        37.33946         0.62039
C         34.13317        38.07974         0.59207
C         35.38665        40.22886         0.77946
C         34.14324        39.50312         0.72029
C         35.38058        41.65554         0.86315
C         34.13730        42.33447         0.92435
C         35.42076        44.55491         1.01308
C         34.10752        43.79175         1.09652
C         35.37052        45.96029         0.58600
C         34.13450        46.61822         0.39514
C         35.35772        48.66633        -0.17847
C         34.12331        47.98491        -0.04089
C         35.40415        50.02988        -0.71703
C         34.06189        50.76652        -0.91713
C         35.34868        52.91633        -1.02590
C         34.08837        52.23108        -0.91706
C         35.38897        54.30685        -1.33345
C         37.73305        18.81224        -0.65337
C         36.51710        18.13363        -0.65225
C         37.74726        20.21827        -0.44281
C         36.52507        20.92018        -0.21594
C         37.75722        23.07497        -0.28951
C         36.53110        22.36703        -0.14196
C         37.76244        24.50132        -0.33057
C         36.53672        25.22061        -0.26676
C         37.77083        27.35186        -0.47940
C         36.54316        26.64719        -0.30407
C         37.79395        28.78177        -0.44986
C         36.58884        29.49331        -0.23664
C         37.82967        31.63870        -0.13499
C         36.62271        30.91102        -0.02727
C         37.83767        33.08714        -0.01268
C         36.65346        33.80086         0.25237
C         37.86827        35.91627         0.29328
C         36.64140        35.22663         0.35219
C         37.92611        37.32322         0.69632
C         36.60455        38.07407         0.88883
C         37.86265        40.22957         0.70603
C         36.62666        39.53912         0.77729
C         37.86730        41.65871         0.69165
C         36.63404        42.37454         0.82152
C         37.86366        44.50770         0.61215
C         36.65761        43.79119         0.79805
C         37.84676        45.93743         0.51113
C         36.60266        46.63768         0.41706
C         37.81033        48.78190         0.15008
C         36.58808        48.03648         0.13089
C         37.77320        50.19036        -0.05227
C         36.60909        50.83870        -0.49913
C         37.80695        53.00611        -0.69272
C         36.58151        52.24496        -0.75679
C         37.80615        54.39776        -1.00381
C         36.57024        55.01207        -1.35173
C         40.19879        15.97538        -0.42461
C         39.03476        16.62732        -0.63047
C         40.25430        18.81765        -0.59381
C         39.00742        18.08382        -1.02603
C         40.24193        20.22134        -0.49064
C         38.99373        20.94283        -0.45906
C         40.23792        23.06924        -0.40311
C         38.99674        22.35029        -0.38449
C         40.24622        24.49047        -0.50848
C         38.98974        25.22229        -0.52014
C         40.17545        27.33295        -1.22250
C         38.97786        26.61609        -0.64363
C         40.22259        28.81432        -0.88257
C         39.05481        29.49925        -0.58219
C         40.25357        31.68308        -0.58786
C         39.05017        30.94853        -0.43214
C         40.24153        33.11106        -0.54712
C         39.05513        33.81467        -0.26022
C         40.26146        36.00239        -0.21331
C         39.06600        35.25205        -0.09447
C         40.31350        37.40682         0.06068
C         39.13204        38.10854         0.42212
C         40.33298        40.24035         0.34960
C         39.11078        39.51523         0.52713
C         40.33622        41.66724         0.39733
C         39.09974        42.37445         0.55357
C         40.32921        44.52149         0.42202
C         39.10255        43.79782         0.52611
C         40.31642        45.95596         0.42957
C         39.07109        46.66054         0.43082
C         40.28586        48.79586         0.39220
C         39.05249        48.08904         0.34783
C         40.29066        50.27311         0.45553
C         38.97685        50.99615         0.20082
C         40.23996        53.09541        -0.26288
C         39.01768        52.38155        -0.28747
C         40.23134        54.48440        -0.55239
C         39.03385        55.14672        -0.91064
C         40.27008        57.24869        -1.26250
C         39.07390        56.54889        -1.21206
C         42.67875        15.98035        -0.27818
C         41.46791        16.67366        -0.41024
C         42.71005        18.80426        -0.30307
C         41.47391        18.10237        -0.45329
C         42.70971        20.23187        -0.27966
C         41.47624        20.93646        -0.35778
C         42.70618        23.07905        -0.26414
C         41.47359        22.36358        -0.34804
C         42.70594        24.50710        -0.31469
C         41.46646        25.18300        -0.53252
C         42.74752        27.37117        -0.67189
C         41.49087        26.61297        -0.92118
C         42.74850        28.84958        -0.70601
C         41.50528        29.55066        -1.21987
C         42.70734        31.69955        -0.85700
C         41.49870        31.01015        -0.83267
C         42.77186        33.13227        -0.85029
C         41.47057        33.84021        -0.89891
C         42.75423        36.04849        -0.59323
C         41.46996        35.35841        -0.72693
C         42.77038        37.40571        -0.31017
C         41.54277        38.12210        -0.04276
C         42.78717        40.26009         0.00711
C         41.55242        39.53285         0.11745
C         42.79095        41.67581         0.07071
C         41.55916        42.38766         0.25036
C         42.79238        44.54352         0.19427
C         41.55960        43.81612         0.29353
C         42.79449        45.96496         0.32283
C         41.54115        46.67998         0.41716
C         42.75211        48.87928         0.59246
C         41.50322        48.10309         0.44354
C         42.77015        50.31303         0.24868
C         41.54119        51.01370         0.18204
C         42.74683        53.10734        -0.23336
C         41.50423        52.40183        -0.05316
C         42.75407        54.51110        -0.43420
C         41.47454        55.28759        -0.26561
C         42.73233        57.29185        -1.10369
C         41.49355        56.63294        -0.93946
C         43.88857        16.66549        -0.19761
C         45.17892        18.80750        -0.09348
C         43.93268        18.07726        -0.20011
C         45.17222        20.23331        -0.05266
C         43.93931        20.94870        -0.14802
C         45.16500        23.09904         0.00288
C         43.93936        22.37510        -0.13582
C         45.14947        24.53415         0.01492
C         43.93099        25.21944        -0.14863
C         45.19694        27.42285        -0.14451
C         43.88055        26.71035         0.08173
C         45.20506        28.79980        -0.37926
C         43.94535        29.50221        -0.63280
C         45.27251        31.68306        -0.91357
C         43.97135        30.94188        -0.98540
C         45.24772        33.15704        -0.79862
C         43.98340        33.83504        -0.86271
C         45.26006        36.01234        -0.64711
C         43.98845        35.33607        -1.09462
C         45.25017        37.42222        -0.44106
C         44.02030        38.13539        -0.31143
C         45.25556        40.26003        -0.20611
C         44.01695        39.53943        -0.15541
C         45.22605        41.68714        -0.25348
C         44.02421        42.39891        -0.09979
C         45.22239        44.58497        -0.14849
C         44.02029        43.84920        -0.03678
C         45.24104        45.99067         0.03766
C         44.02629        46.66689         0.28619
C         45.28330        48.86417         0.17393
C         44.06151        48.11967         0.51753
C         45.25387        50.26054         0.01360
C         44.00003        50.97974         0.02082
C         45.20544        53.07852        -0.51261
C         43.97946        52.38483        -0.23943
C         45.20077        54.49680        -0.65127
C         43.96617        55.21394        -0.63594
C         43.92723        56.62745        -0.90900
C         47.60764        18.82818         0.07318
C         46.41976        18.13286        -0.03302
C         47.62832        20.24236         0.14610
C         46.39893        20.95763         0.08734
C         47.61437        23.10582         0.36654
C         46.39268        22.39073         0.14912
C         47.61320        24.55620         0.35398
C         46.39437        25.26383         0.15187
C         47.65217        27.39984         0.01885
C         46.41442        26.69043         0.02428
C         47.67066        28.82161        -0.13412
C         46.45114        29.53246        -0.36458
C         47.69801        31.66351        -0.39207
C         46.49087        30.94258        -0.52335
C         47.70944        33.10580        -0.51472
C         46.46478        33.83963        -0.68304
C         47.69899        36.00444        -0.45474
C         46.46486        35.29814        -0.61316
C         47.70591        37.38721        -0.30601
C         46.48429        38.12739        -0.29444
C         47.74580        40.28145        -0.26797
C         46.48685        39.55428        -0.23745
C         47.76400        41.69021        -0.39881
C         46.48078        42.39608        -0.55533
C         47.76438        44.60698        -0.28322
C         46.48113        43.90993        -0.50170
C         47.75043        45.99784        -0.09090
C         46.49671        46.72455         0.00539
C         47.77029        48.89794         0.26731
C         46.49767        48.12052         0.06820
C         47.72502        50.28838        -0.31049
C         46.48113        50.97307        -0.32085
C         47.63289        53.04859        -1.20566
C         46.42714        52.35249        -0.62030
C         47.63766        54.51564        -0.86359
C         46.47575        55.18365        -0.69331
C         50.11966        20.29629         0.28863
C         48.86302        20.96832         0.30455
C         50.07829        23.06301         0.81253
C         48.82296        22.37352         0.48582
C         50.08530        24.60356         0.78148
C         48.83318        25.28958         0.43225
C         50.13337        27.39385         0.20532
C         48.87578        26.68461         0.21022
C         50.14344        28.81516         0.08217
C         48.90885        29.53206        -0.07053
C         50.15899        31.66832        -0.09530
C         48.92246        30.95327        -0.17701
C         50.16115        33.09047        -0.22344
C         48.93290        33.78829        -0.42163
C         50.22965        35.96414        -0.30120
C         48.97804        35.25813        -0.75486
C         50.23472        37.36302        -0.23048
C         48.96692        38.10719         0.09607
C         50.17895        40.27759        -0.36726
C         48.97231        39.57689        -0.24612
C         50.21270        41.69840        -0.41002
C         48.98165        42.41579        -0.40897
C         50.21875        44.56156        -0.24829
C         48.98740        43.86960        -0.34413
C         50.22077        45.99004        -0.14762
C         48.99524        46.71678        -0.07849
C         50.21607        48.83802        -0.25513
C         49.01364        48.13374        -0.07067
C         50.21054        50.28359        -0.46644
C         48.95752        50.97353        -0.56664
C         50.15039        53.01425        -1.15477
C         48.94411        52.34828        -0.93405
C         51.31845        20.97158         0.40238
C         52.56786        23.09972         0.65185
C         51.35520        22.36601         0.63514
C         52.55594        24.52095         0.49782
C         51.36644        25.26967         0.51292
C         52.61174        27.39107         0.21471
C         51.36542        26.68183         0.28513
C         52.62013        28.81307         0.17319
C         51.37972        29.52788         0.11696
C         52.61956        31.67028         0.19055
C         51.38746        30.95540         0.06450
C         52.59620        33.08880         0.15432
C         51.40594        33.80050        -0.11647
C         52.67451        35.96232        -0.05382
C         51.43828        35.24374        -0.17763
C         52.68514        37.38243        -0.18718
C         51.45587        38.06633        -0.26984
C         52.74047        40.26091        -0.49949
C         51.43078        39.51527        -0.53098
C         52.69682        41.71543        -0.26022
C         51.47888        42.40536        -0.33301
C         52.69020        44.54214        -0.13757
C         51.47447        43.84766        -0.24432
C         52.71749        45.99418        -0.10279
C         51.44691        46.71180        -0.12281
C         52.72253        48.81223        -0.41729
C         51.43167        48.10889        -0.24846
C         52.73018        50.29493        -0.61269
C         51.41802        50.99478        -0.67098
C         51.37348        52.35747        -0.99756
C         55.02452        23.03719         0.76847
C         53.82396        22.41259         0.85034
C         55.12793        24.40465         0.24958
C         53.80996        25.20153         0.12501
C         55.06791        27.36344         0.08316
C         53.84774        26.67947         0.16645
C         55.09670        28.79323         0.14393
C         53.86605        29.51505         0.18255
C         55.10614        31.63032         0.35021
C         53.87129        30.94792         0.26679
C         55.13263        33.07478         0.60393
C         53.81713        33.84379         0.48489
C         55.13512        35.96816         0.26599
C         53.89175        35.27925         0.20211
C         55.17049        37.37785         0.10374
C         53.94232        38.10698        -0.12093
C         55.24931        40.25548        -0.32992
C         53.96324        39.49465        -0.21835
C         55.11930        41.66488         0.19943
C         53.92537        42.38546         0.07309
C         55.12438        44.54446         0.22035
C         53.92653        43.83707         0.09806
C         55.21866        45.96782        -0.26254
C         53.91309        46.67815        -0.04066
C         55.21451        48.87149         0.02700
C         53.90755        48.15467         0.25141
C         55.15680        50.28668        -0.07967
C         53.98521        50.98680        -0.27941
C         57.62638        24.51958         0.52109
C         56.37565        25.16241         0.35154
C         57.62725        27.35529         0.13484
C         56.33606        26.59719         0.01769
C         57.59105        28.82966         0.23432
C         56.34506        29.51401         0.19138
C         57.59224        31.65243         0.34821
C         56.34584        30.93571         0.27851
C         57.61136        33.08891         0.40355
C         56.38931        33.82422         0.44708
C         57.62480        35.94396         0.45135
C         56.37891        35.23015         0.41006
C         57.63668        37.37368         0.45832
C         56.41053        38.10062         0.25093
C         57.64131        40.22208         0.48610
C         56.44074        39.50542         0.20218
C         57.62338        41.64494         0.63660
C         56.31375        42.31487         0.69553
C         57.61699        44.57009         0.66347
C         56.31619        43.88621         0.70545
C         57.61839        45.99737         0.53386
C         56.42547        46.71934         0.25397
C         57.68384        48.81566         0.42834
C         56.43372        48.13857         0.22881
C         58.81558        25.20400         0.62058
C         60.08118        27.39934         0.40368
C         58.81366        26.69017         0.80494
C         60.05487        28.73441         0.20975
C         58.81557        29.50779         0.28348
C         60.04727        31.67046         0.37822
C         58.82315        30.94026         0.33160
C         60.05995        33.04129         0.42871
C         58.84842        33.78982         0.44321
C         60.06709        35.95751         0.63379
C         58.85172        35.22567         0.51408
C         60.07194        37.32994         0.69108
C         58.86358        38.07586         0.59960
C         60.04564        40.26723         0.89896
C         58.86649        39.51501         0.66263
C         60.02184        41.64540         0.96153
C         58.80676        42.37698         0.84789
C         60.02014        44.58370         1.00051
C         58.80618        43.84787         0.86460
C         60.03520        45.96282         0.95680
C         58.84778        46.70037         0.71986
C         58.84757        48.12342         0.65004
O         43.49246        48.53853         1.81591
O         46.41444        43.20064        -1.79169
O         37.36221        37.56266         2.03610
O         56.11586        43.09217         1.91586
O         35.41574        32.21121         1.70569
O         39.51306        50.82674         1.56611
O         54.37381        33.47363         1.79912
O         34.79661        50.16600        -2.04026
O         41.30646        34.72372        -2.07237
O         34.08012        21.56316         1.45943
O         24.39197        43.12787         3.09163
O         42.48365        26.82709        -2.01888
O         57.21581        26.87682        -1.16807
O         25.88999        38.19204        -1.07766
O         52.93152        49.33635        -1.75252
O         54.45233        24.61479        -1.04940
O         44.72547        31.21278        -2.21523
O         52.11846        39.86990        -1.79122
O         50.02125        23.86716         2.04435
O         34.78344        44.28229         2.31069
O         39.03131        18.09289        -2.50359
H         39.87022        17.66673        -2.78083
O         49.08164        35.30184        -2.22921
H         48.27414        34.87944        -2.59419
O         48.94127        38.08546         1.57863
H         48.11122        38.52516         1.86256
O         43.95092        35.50093        -2.55854
H         43.06217        35.17427        -2.84495
O         55.41990        45.91431        -1.72670
H         54.59680        45.55757        -2.12405
O         32.12809        33.75406        -1.67750
H         31.43726        34.20301        -2.20865
O         24.06516        33.98152        -2.30439
H         24.06503        33.05139        -2.61965
O         53.63755        48.28455         1.69498
H         54.34757        47.81036         2.17753
O         41.40032        55.59344         1.19121
H         40.56765        56.09272         1.33395
O         47.45620        52.97579        -2.67420
H         46.60841        53.42341        -2.88294
O         43.55073        26.90368         1.50044
H         44.26235        26.48710         2.03136
O         27.09857        43.89036         3.22921
H         26.30638        43.53481         3.69357
O         55.50017        40.39104        -1.78695
H         54.62811        40.48559        -2.22931
O         24.37244        37.24476         2.16097
H         23.60599        37.51406         2.70959
O         58.61509        26.93767         2.24368
H         59.40273        26.59616         2.71665
O         47.85201        49.10978         1.73754
H         47.00555        49.52140         2.01791
O         39.95674        27.23110        -2.66503
H         40.84173        27.17915        -3.09136
O         32.49713        33.11410         1.91437
H         33.27300        32.74639         2.39414
O         24.25829        29.63922        -2.54283
H         24.30551        28.70416        -2.83710
O         41.63079        29.53685        -2.68286
H         42.07822        28.69573        -2.92978
H         22.00593        27.00473        -0.32609
H         21.98692        29.40195        -0.79664
H         22.10830        31.25008        -0.14440
H         22.09120        33.70125        -0.09009
H         22.13186        35.72892        -0.78309
H         22.08350        37.99204         0.18905
H         22.22954        39.36598         1.81892
H         22.34554        41.60812         2.92926
H         22.23776        44.54219         2.66940
H         22.11975        46.64809         1.29200
H         25.30388        23.58298        -0.07143
H         23.20935        24.86599        -0.21483
H         25.37077        49.54576        -0.54326
H         23.27590        48.42140         0.08480
H         26.94093        22.61185         0.03208
H         26.98470        50.56523        -0.50960
H         29.02909        21.38002         0.13346
H         29.07393        51.78585        -0.73842
H         32.69985        19.19374        -0.42228
H         30.64557        20.45187        -0.30822
H         32.82217        53.99226        -0.79095
H         30.72915        52.77368        -0.59805
H         34.38767        18.22944        -0.35687
H         34.45722        54.82804        -1.59188
H         36.47463        17.05565        -0.85426
H         36.54005        56.07636        -1.61900
H         40.20325        14.89185        -0.23065
H         38.09726        16.05395        -0.63732
H         40.27212        58.29402        -1.60661
H         38.14987        57.07449        -1.48424
H         42.67010        14.88151        -0.23853
H         42.73872        58.34064        -1.43735
H         44.81372        16.08159        -0.10720
H         44.86619        57.17370        -1.06737
H         48.54336        18.25691         0.11928
H         46.45679        17.03655        -0.07254
H         48.58523        55.07203        -0.86094
H         46.50136        56.26907        -0.52283
H         50.15338        19.21267         0.11981
H         50.15584        54.06423        -1.47625
H         52.25694        20.41155         0.29276
H         52.30623        52.90660        -1.18575
H         55.93758        22.51413         1.08527
H         53.79290        21.36985         1.19602
H         56.08610        50.86811         0.01373
H         54.00637        52.08594        -0.26132
H         57.65132        23.41945         0.53729
H         57.71499        49.91300         0.40110
H         59.76321        24.65259         0.71121
H         61.02444        26.83626         0.33639
H         60.99086        29.25764        -0.03142
H         61.00457        31.13355         0.37665
H         61.02829        33.55702         0.45772
H         61.02592        35.42717         0.69629
H         61.03285        37.85083         0.79350
H         61.00740        39.75516         1.03514
H         60.96921        42.17285         1.13180
H         60.96829        44.05641         1.16719
H         60.98188        46.50527         1.09362
H         59.79542        48.66420         0.78586
