         651
 CSIRO Nanostructure Databank - Neutral Graphene Oxide Data Set
C          5.88205        31.81979        -0.53324
C          5.92787        33.17951        -0.51870
C          8.22040        27.28876        -0.24468
C          8.02371        28.74247         0.23836
C          6.94270        29.62019        -0.32876
C          8.33561        31.70669        -0.23063
C          7.07096        31.00404        -0.35430
C          8.40018        33.10171        -0.37257
C          7.18511        33.88832        -0.46009
C          8.50706        35.94666        -0.66876
C          7.25102        35.27154        -0.54237
C          8.62132        37.33065        -0.79956
C         10.72185        23.05236         0.41207
C         10.71075        24.41712         0.37319
C          9.53430        25.11880        -0.32911
C         10.59754        27.33515         0.36639
C          9.41133        26.62417        -0.12075
C         10.40550        28.61726         0.75718
C          9.35481        29.44635         0.15892
C         10.89630        31.63296         0.07192
C          9.57661        30.90771        -0.05958
C         10.88617        32.89669        -0.74617
C          9.66254        33.76923        -0.53251
C         10.94081        35.80535        -1.14408
C          9.70715        35.14940        -0.74843
C         11.07598        37.20055        -1.20802
C          9.87509        37.98958        -1.00319
C         11.06324        40.17995        -1.13131
C          9.88809        39.39681        -1.00202
C         11.02281        41.56085        -0.94524
C         13.31282        18.68714         0.35999
C         13.19026        20.06663         0.96667
C         11.93144        20.89087         0.71197
C         13.21422        23.02354         0.49743
C         11.91828        22.25524         0.69886
C         13.24593        24.47071         1.02169
C         11.89981        25.19294         0.84071
C         13.19517        27.40367         0.36115
C         11.88421        26.68137         0.76393
C         13.31124        28.90210         0.57967
C         12.29926        29.75229         0.90764
C         13.39204        31.77223         0.03124
C         12.14531        31.10550         0.37632
C         13.45500        33.04562        -0.51934
C         12.18250        33.68427        -0.76369
C         13.97649        35.96145        -1.42315
C         12.04031        34.90805        -1.39189
C         13.73793        37.37311        -1.23860
C         12.36493        37.94972        -1.49052
C         13.60848        40.26489        -1.31854
C         12.32840        39.46528        -1.45489
C         13.50613        41.76351        -1.14683
C         12.19072        42.40337        -0.86644
C         13.29041        44.54363         0.01683
C         12.11805        43.71580        -0.46755
C         13.36344        45.98057        -0.43989
C         15.80036        14.55000        -0.30669
C         15.79332        15.94073        -0.04344
C         14.58506        16.65181         0.04547
C         15.81076        18.72509         0.71143
C         14.54995        18.04258         0.34551
C         15.70158        20.10591         0.99151
C         14.45723        20.82742         0.52295
C         15.73105        23.04579         0.91949
C         14.43017        22.26605         1.06010
C         15.74549        24.44097         0.87153
C         14.50206        25.19141         0.41270
C         15.66990        27.34962         0.94205
C         14.47342        26.66912         0.73845
C         15.78214        28.76201         0.81023
C         14.62372        29.51987         0.29604
C         15.78358        31.78225         0.82966
C         14.65904        31.00256         0.18505
C         16.04661        33.04870        -0.02835
C         14.82002        33.70500        -0.68641
C         16.12558        35.94401        -0.25399
C         14.94553        35.19405        -0.83934
C         16.12890        37.39638        -0.71322
C         14.84016        38.13097        -0.87786
C         15.97726        40.26679        -0.43626
C         14.85308        39.56802        -0.88728
C         15.97679        41.74059        -0.36983
C         14.72228        42.52102        -0.72105
C         15.82038        44.60789        -0.04603
C         14.61580        43.88524        -0.21378
C         15.83069        46.03203        -0.16771
C         14.56125        46.70667        -0.40753
C         15.81130        48.85475        -0.51644
C         14.60258        48.11831        -0.58045
C         15.81083        50.26829        -0.58532
C         18.27160        10.30596        -1.10297
C         18.24879        11.71766        -0.96127
C         17.03588        12.44775        -0.74431
C         18.22734        14.61716        -0.58154
C         17.00627        13.84197        -0.51878
C         18.23967        15.97914        -0.31185
C         17.04283        16.66826         0.08848
C         18.37799        18.65215         0.70685
C         17.06106        18.00241         0.57181
C         18.57265        19.89654         1.35791
C         16.70717        20.93527         1.54717
C         18.21959        22.98311         1.63040
C         16.88175        22.30993         1.31600
C         18.18908        24.48332         1.32634
C         16.95867        25.14157         1.16014
C         18.17847        27.35839         1.58871
C         16.88246        26.59821         1.36641
C         18.21190        28.80953         1.36455
C         16.99373        29.46883         1.04236
C         18.10660        31.46544         1.69212
C         16.99002        30.89486         1.10592
C         18.20795        33.55354         1.15603
C         17.28204        33.86458         0.20273
C         18.69806        35.95326         0.00180
C         17.47822        35.16800        -0.56060
C         18.58466        37.45174         0.12732
C         17.35435        38.18105        -0.35048
C         18.10711        40.22673         0.84625
C         17.17257        39.60593         0.00883
C         18.11155        41.71008         1.08551
C         16.97804        42.46080         0.46995
C         18.26761        44.59024         0.18220
C         17.04941        43.91265         0.17117
C         18.28484        45.98755        -0.06614
C         17.06497        46.71847        -0.21858
C         18.27019        48.89921        -0.42130
C         17.07590        48.16119        -0.39983
C         18.26480        50.32740        -0.41756
C         17.00413        51.02195        -0.50138
C         18.19681        53.18122        -0.45186
C         17.00675        52.44072        -0.56719
C         18.22664        54.58840        -0.70372
C         20.65325         6.05061        -1.83716
C         20.67932         7.48545        -1.83940
C         19.55118         8.17813        -1.42481
C         20.70150        10.34881        -1.33195
C         19.48148         9.61988        -1.32292
C         20.71508        11.73793        -1.11253
C         19.48214        12.42917        -1.01492
C         20.77720        14.60328        -0.81093
C         19.46100        13.89847        -0.97988
C         20.73011        15.93926        -0.10932
C         19.50945        16.76527        -0.56089
C         20.76597        18.82060         0.14527
C         19.54209        18.10140         0.13451
C         20.74884        20.21667         0.41263
C         19.61419        20.78304         1.02727
C         20.67214        23.11412         0.72338
C         19.43694        22.28068         0.99910
C         20.68632        24.62659         0.79716
C         19.41256        25.23640         1.33935
C         20.68535        27.37079         1.49345
C         19.44247        26.62673         1.45931
C         20.68320        28.78928         1.61379
C         19.43866        29.50585         1.52477
C         20.63204        31.69550         1.89530
C         19.41864        30.92367         1.70022
C         20.59665        33.24724         2.12542
C         19.57661        33.99339         1.24828
C         20.78130        36.06568         1.47561
C         19.74999        35.28720         0.82819
C         20.38155        37.35092         1.85349
C         19.35593        38.09740         1.20739
C         20.86013        40.54675         2.20462
C         19.04664        39.40918         1.54491
C         20.71371        41.94572         1.73546
C         19.46780        42.41432         0.99143
C         20.83349        44.53563         0.23821
C         19.51956        43.78722         0.34133
C         20.82671        46.01110         0.13531
C         19.56471        46.67743        -0.26906
C         20.78884        48.91736        -0.12578
C         19.56869        48.19004        -0.43594
C         20.82747        50.39263        -0.36956
C         19.46893        51.07831        -0.30141
C         20.67230        53.23584        -0.06820
C         19.43630        52.47834        -0.21850
C         20.61373        54.74856         0.03392
C         19.40752        55.34698        -0.64804
C         20.67539        57.43756        -1.10732
C         19.46309        56.67807        -1.07759
C         20.69069        58.72129        -1.67164
C         23.13026         3.46598        -3.08750
C         21.91430         3.94039        -2.53882
C         23.30113         6.44630        -3.06325
C         21.51365         5.28725        -2.63451
C         23.25305         7.66601        -2.39735
C         21.88845         8.33796        -2.30615
C         23.26918        10.24735        -1.14997
C         21.96128         9.56826        -1.42430
C         23.22088        11.71076        -0.93661
C         21.99240        12.42363        -0.92581
C         23.21715        14.49441        -0.40150
C         22.01396        13.81139        -0.68487
C         23.20381        15.94945        -0.26056
C         22.03690        16.68493        -0.23617
C         23.22966        18.80665         0.11589
C         22.03741        18.12735        -0.07505
C         23.26634        20.26290         0.33618
C         21.97950        21.02676         0.31238
C         23.13856        23.09061         1.12707
C         21.97995        22.43135         0.78667
C         23.14429        24.52074         1.40211
C         21.94831        25.24534         1.35410
C         23.15044        27.37784         1.72196
C         21.92598        26.65999         1.53754
C         23.11430        28.80097         1.89297
C         21.89573        29.53046         1.83419
C         23.08578        31.73088         2.43011
C         21.82952        30.99019         1.98068
C         23.11463        33.23311         2.15583
C         21.96206        33.95048         2.01928
C         23.15660        36.18944         2.19143
C         21.98109        35.42611         1.96237
C         23.22480        37.63155         2.19941
C         22.12570        38.43921         2.48051
C         23.30443        40.53743         1.87253
C         22.05308        39.85448         2.19955
C         23.28287        41.91978         1.70058
C         22.01415        42.66221         1.56951
C         23.32298        44.70543         0.85703
C         22.08234        43.91103         0.75974
C         23.27925        46.07953         0.39972
C         21.98178        46.72662         0.30523
C         23.25949        48.92115         0.55163
C         21.90022        48.20620         0.59889
C         23.21376        50.43856         0.52101
C         21.84040        51.12231         0.52293
C         23.12332        53.31451        -0.11540
C         21.85971        52.59158         0.13937
C         23.11282        54.78976        -0.10490
C         21.92454        55.46139        -0.25574
C         23.11978        57.57344        -0.79426
C         21.91853        56.85621        -0.65181
C         23.13519        58.86209        -1.41664
C         21.89835        59.43730        -1.85401
C         23.10127        61.37871        -2.69080
C         21.90963        60.71224        -2.48723
C         24.27774         4.20094        -3.38376
C         25.66703         6.22671        -2.79467
C         24.43660         5.60481        -3.12515
C         25.69442         7.53332        -2.30415
C         24.49542         8.25143        -2.02109
C         25.78289        10.24704        -1.27088
C         24.57081         9.59981        -1.49337
C         25.76134        11.75017        -1.04944
C         24.42795        12.39709        -0.76072
C         25.68083        14.41976         0.01967
C         24.43193        13.77097        -0.44163
C         25.68679        15.89169         0.22342
C         24.49974        16.64704        -0.24206
C         25.73694        18.73476         0.56773
C         24.52815        18.14769        -0.03714
C         25.66402        20.03601         1.20770
C         24.40170        20.84207         1.12368
C         25.68850        23.04075         1.55263
C         24.38715        22.32150         1.42222
C         25.66025        24.47613         1.59538
C         24.39858        25.20788         1.59303
C         25.63831        27.35228         1.50004
C         24.37414        26.61872         1.68334
C         25.62151        28.84736         1.66245
C         24.39821        29.51029         2.29108
C         25.58408        31.78035         1.64468
C         24.32689        31.00472         1.92679
C         25.62729        33.23626         1.84873
C         24.42515        33.93923         2.27168
C         25.69785        36.20286         1.86566
C         24.46306        35.48035         2.31406
C         25.72452        37.56795         1.70469
C         24.56889        38.36019         2.26848
C         25.72740        40.46286         1.41810
C         24.51691        39.79436         1.79770
C         25.74096        41.87054         1.31477
C         24.56748        42.68779         1.82851
C         25.71877        44.64558         0.67375
C         24.49102        44.07704         1.22508
C         25.63717        45.91312        -0.12674
C         24.44551        46.77708         0.04825
C         25.62313        49.03024        -0.16070
C         24.48228        48.23060         0.04762
C         25.62364        50.46158         0.04812
C         24.44310        51.15474         0.15314
C         25.70790        53.35156        -0.09572
C         24.42830        52.60031        -0.12505
C         25.68280        54.75500        -0.19620
C         24.40729        55.49015        -0.05222
C         25.68558        57.59431        -0.76196
C         24.39936        56.98483        -0.35277
C         25.68220        59.06686        -1.10252
C         24.35137        59.57862        -1.61796
C         24.31930        60.81472        -2.25357
C         27.03930         8.13232        -1.97557
C         28.30158        10.21295        -1.63956
C         27.05142         9.61067        -1.61561
C         28.62705        11.41251        -0.89805
C         26.80950        12.31785        -0.12025
C         28.28011        14.31172         0.36321
C         26.94508        13.65686         0.02428
C         28.19935        15.83087         0.09155
C         26.96234        16.60709         0.36088
C         28.20649        18.67327         0.96811
C         26.94037        17.97974         0.60858
C         28.23722        20.15352         1.08171
C         26.98811        20.84269         1.48767
C         28.20221        22.99374         1.67969
C         26.89608        22.31088         1.54437
C         28.24311        24.51869         1.81249
C         26.89813        25.21820         1.62365
C         28.18327        27.34933         1.38735
C         26.90674        26.60024         1.55244
C         28.19981        28.85453         1.50563
C         26.92457        29.56731         1.87272
C         28.18501        31.85611         1.58390
C         26.89644        31.06338         1.81372
C         27.92439        33.18128         0.85279
C         26.90425        33.93879         1.68087
C         28.10887        36.11957         0.99178
C         26.94965        35.44992         1.64813
C         28.13773        37.53550         1.00718
C         26.94659        38.27320         1.31392
C         28.10751        40.34581         0.58886
C         26.92875        39.67883         1.18532
C         28.15205        41.86290         0.53721
C         27.02159        42.58918         1.16683
C         28.34524        44.85809         0.70707
C         27.05315        44.09332         1.04353
C         28.16754        46.06777        -0.19354
C         26.92761        46.43945        -0.59182
C         28.11565        49.06408        -0.54507
C         26.86488        48.56205        -0.75143
C         28.22398        50.44792        -0.04308
C         26.91899        51.19211         0.11606
C         28.16251        53.33869        -0.26936
C         26.92544        52.65271        -0.08002
C         28.11274        54.74413        -0.45021
C         26.89932        55.45873        -0.40864
C         26.84700        56.88427        -0.70342
C         29.49377        12.45812        -1.11591
C         30.66467        14.47388        -0.42276
C         29.50380        13.72416        -0.38471
C         30.76357        15.86305        -0.02881
C         29.47496        16.59237         0.05507
C         30.72488        18.75107         0.45592
C         29.49438        17.96870         0.63627
C         30.68637        20.14492         0.62490
C         29.42616        20.82235         0.91987
C         30.68874        23.02162         0.92623
C         29.46829        22.25890         1.28158
C         30.65318        24.41331         0.90324
C         29.30564        25.12939         0.84889
C         30.67491        27.04884         1.57258
C         29.43604        26.56208         1.28924
C         30.70674        29.22551         1.62896
C         29.43015        29.70805         1.48432
C         30.56338        31.80661         0.73801
C         29.23793        31.02973         0.80663
C         30.34724        33.18773         0.14068
C         29.22294        33.91941         0.52382
C         30.33900        36.08254        -0.09043
C         29.18892        35.35556         0.48765
C         30.54273        37.49190         0.20382
C         29.47836        38.25027         0.94795
C         30.53677        40.32897        -0.02669
C         29.38881        39.66322         0.44238
C         30.57491        41.79495        -0.15654
C         29.40968        42.58519         0.21401
C         30.54385        44.68642        -0.45878
C         29.40355        43.95630         0.10526
C         30.57047        46.17288        -0.47194
C         29.37028        46.83155        -0.53759
C         30.63036        49.01791        -0.76677
C         29.32624        48.28646        -1.04348
C         30.62383        50.43363        -0.65020
C         29.45257        51.19990        -0.39518
C         29.39431        52.59786        -0.40603
C         31.92647        16.59761         0.01076
C         33.12804        18.77786         0.12222
C         31.94075        18.04414         0.18875
C         33.13718        20.19348         0.29233
C         31.90446        20.88411         0.54439
C         33.11878        23.02860         0.52300
C         31.90691        22.31057         0.68002
C         33.10919        24.44924         0.59231
C         31.87965        25.13337         0.78413
C         33.01979        27.35796         0.69880
C         31.90338        26.54625         0.99879
C         32.97255        28.82899         0.54281
C         31.84679        29.63713         0.85177
C         32.84895        31.58355        -0.46452
C         31.64717        30.91844         0.14946
C         32.79908        33.05951        -0.74163
C         31.51191        33.81710        -0.52534
C         32.86291        35.98688        -0.72085
C         31.55244        35.31226        -0.61229
C         32.88755        37.38676        -0.65449
C         31.69969        38.14005        -0.25373
C         32.92287        40.24052        -0.80117
C         31.72090        39.57485        -0.28370
C         32.96960        41.74646        -0.84856
C         31.76114        42.45912        -0.41370
C         33.11069        44.65234        -0.35722
C         31.81442        43.91712        -0.62003
C         33.03096        46.11315        -0.75369
C         31.85186        46.84047        -0.70398
C         31.82049        48.28435        -0.77827
C         34.34693        20.92541         0.21776
C         35.55935        23.09178         0.26783
C         34.36544        22.33495         0.32821
C         35.55240        24.50935         0.33317
C         34.30344        25.21024         0.47372
C         35.43969        27.34475         0.13385
C         34.25180        26.64380         0.40987
C         35.36502        28.73904        -0.41553
C         34.12079        29.50874        -0.02680
C         35.33682        31.64521        -0.52080
C         34.12268        30.87981        -0.32885
C         35.31684        33.04761        -0.71222
C         34.08332        33.80700        -0.78575
C         35.32486        35.90856        -1.33271
C         34.06547        35.19989        -0.88918
C         35.35798        37.38226        -1.01260
C         34.15439        38.09799        -0.81235
C         35.41124        40.23192        -0.98084
C         34.19308        39.50685        -0.81817
C         35.43884        41.65862        -1.00915
C         34.27594        42.46144        -0.87066
C         34.31173        43.85152        -0.80557
C         36.74518        25.26280         0.27179
C         37.89394        27.44059         0.13760
C         36.70204        26.67301         0.16487
C         37.89052        28.85409        -0.01798
C         36.63543        29.54561        -0.26309
C         37.84535        31.66837        -0.59565
C         36.59159        30.91981        -0.43393
C         37.81048        33.13110        -0.53659
C         36.57269        33.79584        -0.70533
C         37.80567        35.89630        -0.93916
C         36.58595        35.19333        -0.91274
C         37.82767        37.31101        -1.46435
C         36.57451        38.08481        -1.14691
C         36.60959        39.47766        -1.10312
C         39.08316        29.57029         0.14784
C         40.30962        31.82024         0.11109
C         39.18047        30.95761        -0.27055
C         40.24756        33.16483        -0.04852
C         39.02403        33.85174        -0.42812
C         39.00512        35.24443        -0.63238
O         17.66805        20.29261         2.33895
O         30.54989        35.80918        -1.53179
O         22.12373         6.01252        -3.69115
O         17.86981        32.73104         2.24659
O         22.57921         9.42840        -0.10899
O         31.85829        30.85152        -1.27161
O         27.69764        41.11321        -0.61637
O         38.71545        31.16542        -1.65496
O         25.47647        28.31768         0.33848
O         29.07042        22.39910         2.71170
O         17.07242        37.80372        -1.74078
O         23.71103        52.83760        -1.41763
O         24.42296        56.49698         1.02813
O         27.70678        50.73512         1.29358
O         24.04337        21.32102         2.45830
O          9.69819        29.89313        -1.19591
O         27.22386        43.46931         2.34402
O         13.70475        41.17975        -2.46414
O         14.92825        30.18501        -1.00573
O         30.83551        28.11655         2.45986
O         28.06877        28.23889         0.15863
O         19.67310        39.96919         2.67580
O         17.02834        42.19025         1.93065
O         19.76915        22.68937        -0.35369
O         25.42083        15.01621         1.38429
O         31.02551        44.25349        -1.79625
O         27.84770        11.49064         0.27930
O         26.27646        20.10459         2.52074
O         17.32193        26.96860         2.72873
O         24.69176        31.28393         0.55678
O         24.59796        34.71026         3.54418
O         22.83224        20.94200        -0.89309
O         11.69297        26.04472         2.05755
O         20.17624        14.52190        -2.12495
O         19.33900        36.84754        -0.96927
O         21.18682        42.87246         2.78862
O         26.77835        47.42452        -1.57818
O         28.72579        16.35578        -1.19601
O         15.77107        32.89318        -1.44538
O         19.69438        47.26906        -1.61973
O         27.39580        34.68239         2.83419
O         11.23909        29.25231         1.66293
O         12.28502        38.73492        -2.72591
O         13.04287        35.34217        -2.24089
O         21.74178        43.81605        -0.66483
O         26.97335        30.34361         3.10104
O         28.97679        17.98968         2.01654
O         23.47096        49.69852         1.77148
O         19.63779        42.56495        -0.45667
O         32.70441        40.97892        -2.07259
O         25.48669        44.61967        -0.81375
O         20.96751        37.85881         3.02242
O         31.89084        33.30842        -1.86150
O         24.75182        17.52903        -1.36834
O         15.84367        42.37832        -1.66762
O         28.89250        45.35480         1.95444
H         28.67971        44.68932         2.64932
O         29.90772        38.34493         2.37661
H         30.83538        38.66348         2.38766
O         26.73765        59.38972        -2.01304
H         26.55266        58.95068        -2.86812
O         19.57925        17.03165        -1.97969
H         20.40688        17.52396        -2.16232
O         29.24572        48.19755        -2.49374
H         28.41251        47.71577        -2.70416
O         20.70622        25.04008        -0.61287
H         20.78687        26.01684        -0.64443
O         23.10548        31.61855         3.88933
H         22.36783        32.16526         4.24047
O         14.30213        22.07396         2.49718
H         14.09652        22.95335         2.90470
O         20.38917        54.97864         1.47274
H         20.29760        55.94656         1.60343
O         31.11064        32.05551         2.06144
H         30.37605        32.38133         2.64526
O         28.68074        32.20963         2.88918
H         28.34966        31.53050         3.52526
O         28.78298        30.82497        -0.54817
H         28.49540        29.88818        -0.66210
O         26.16337        12.30954        -2.35855
H         25.49481        12.03259        -3.02101
O         14.57639        25.14611        -1.02865
H         13.87720        25.74214        -1.39344
O         27.97457         7.84554        -3.02398
H         27.61000         8.19094        -3.86429
O         13.08584        44.58326         1.49594
H         13.75693        45.19738         1.86442
O         13.52390        24.47503         2.44264
H         12.98688        25.20683         2.84115
O         15.23435        32.24669         2.09442
H         15.99374        32.53162         2.65381
O         13.28621        23.11955        -0.93976
H         13.40519        22.20498        -1.29494
O         24.76550        42.88997         3.27424
H         24.84189        42.00431         3.68975
O         24.86713        38.45500         3.71117
H         24.98467        37.54215         4.05433
O         17.63880        34.98143        -1.95191
H         17.96522        35.83064        -2.32801
O         28.65266        24.84943         3.15416
H         29.04140        24.03227         3.55035
O         21.30806        51.04239         1.86939
H         21.91997        51.51191         2.47470
O         21.31963        50.54742        -1.74010
H         20.74710        50.01493        -2.33293
O         24.55659        29.35303         3.71559
H         23.97665        30.01479         4.16394
O         10.77542        32.45618        -2.15509
H         10.41624        31.54041        -2.17395
O         13.08044        27.34028        -1.11988
H         13.71961        27.98620        -1.49806
O         15.99297        36.03041         1.19469
H         15.74781        35.14544         1.54085
O         35.31352        35.84193        -2.80079
H         36.09852        36.35382        -3.11579
O         37.89963        37.21788        -2.90877
H         38.63637        36.61435        -3.13946
O         33.20652        44.65694         1.12323
H         34.00028        45.17841         1.36801
O         20.55570        15.62539         1.29990
H         20.61514        16.45923         1.81237
O         28.78153        24.99641        -0.49093
H         29.15672        25.70625        -1.05216
O         13.18989        19.76196         2.38672
H         13.49921        20.57777         2.85623
O         21.57010         8.81650        -3.63909
H         21.48844         8.01956        -4.21003
O         18.45773        22.88893         3.06122
H         17.70005        23.30067         3.52711
O         28.54436        14.17374         1.77719
H         27.71950        14.39497         2.26100
O         14.46000        20.79196        -0.92825
H         15.32238        21.13384        -1.24621
O         21.42465        48.23519         1.98881
H         21.51431        49.17631         2.29257
O          9.66035        24.85116        -1.73832
H         10.47669        25.28326        -2.06433
O         20.20790        33.41823         3.51580
H         19.26240        33.15006         3.58386
O         35.22527        28.51699        -1.87329
H         35.14880        29.39842        -2.29905
O          7.70848        28.61794         1.66446
H          6.86833        28.12001         1.74684
O         27.25148        32.95335        -0.39733
H         27.78135        32.30221        -0.92140
H          4.91516        31.30357        -0.62792
H          5.00143        33.76557        -0.60927
H          7.31349        26.71463        -0.49504
H          5.93846        29.18682        -0.46713
H          6.32271        35.86129        -0.57909
H          7.71562        37.95284        -0.73613
H          9.81800        22.50856         0.09034
H          8.58019        24.62857        -0.00430
H          8.93520        39.92072        -0.82957
H         10.04798        42.02435        -0.72627
H         12.40616        18.09298         0.16060
H         10.97167        20.34709         0.71506
H         11.12108        44.14048        -0.26755
H         12.42670        46.50617        -0.67953
H         14.84115        14.01327        -0.35735
H         13.63565        16.12263        -0.12752
H         13.65758        48.66633        -0.71596
H         14.85098        50.79687        -0.68637
H         17.32924         9.74192        -1.04364
H         16.08703        11.89076        -0.72208
H         16.05563        52.96929        -0.72974
H         17.30127        55.07241        -1.05362
H         19.94661         5.54618        -1.16016
H         18.63857         7.60717        -1.19227
H         18.55463        57.14098        -1.49360
H         19.74824        59.16418        -2.02705
H         23.24380         2.37019        -3.12483
H         21.29379         3.23469        -1.96699
H         23.10821        62.35848        -3.18834
H         20.95902        61.15222        -2.82103
H         25.18746         3.63003        -3.62677
H         26.61150         5.67315        -2.89832
H         25.91020        59.62848        -0.15141
H         25.26170        61.35745        -2.41336
H         27.43000         7.59499        -1.06336
H         29.10823         9.65816        -2.14910
H         29.04763        55.29153        -0.64333
H         27.78922        57.39016        -0.96526
H         30.21140        12.37509        -1.94772
H         31.56914        14.01241        -0.85143
H         31.58859        50.96395        -0.70851
H         30.31064        53.16629        -0.62899
H         32.89479        16.09449        -0.13269
H         34.08062        18.25924        -0.06195
H         33.97977        46.64939        -0.91869
H         32.77901        48.82600        -0.72507
H         35.29111        20.38468         0.05484
H         36.52027        22.56990         0.14700
H         36.41662        42.15614        -1.09641
H         35.28871        44.36007        -0.85407
H         37.71666        24.74831         0.24468
H         38.85879        26.92638         0.25808
H         38.73823        37.85740        -1.08726
H         37.56819        40.00235        -1.22936
H         39.97048        29.06538         0.55798
H         41.21722        31.34677         0.51412
H         41.12401        33.78593         0.18943
H         39.94687        35.81347        -0.60403
