         324
 CSIRO Nanostructure Databank - Neutral Graphene Oxide Data Set
C          1.32834         3.56904        -1.83765
C          0.11354         4.21830        -1.74087
C          1.18662         6.23445        -0.85659
C          0.04260         5.54326        -1.26702
C          1.13005         7.64606        -0.45466
C         -0.09551         8.41402        -0.58290
C          0.95903        10.46090         0.32505
C         -0.18130         9.72448        -0.24233
C          0.94097        11.95555         0.32747
C         -0.18441        12.69707         0.51635
C          0.99713        14.86231         0.53768
C         -0.16117        14.14982         0.48615
C          1.07665        16.36101         0.27260
C         -0.13901        17.14779         0.69837
C          1.16216        19.24403         0.68899
C         -0.07778        18.48613         0.84751
C          1.17309        20.66773         0.64178
C         -0.01341        21.45034         0.94332
C          1.11210        23.60222         0.49574
C         -0.02624        22.80593         0.98379
C          1.25907        25.04744         0.80451
C          0.15174        25.79359         1.27373
C          1.48550        27.82526         1.34694
C          0.25506        27.14934         1.52912
C          1.60873        29.22587         1.62829
C          3.77993         3.60137        -1.54383
C          2.51898         4.22113        -1.41078
C          3.64308         6.14505        -0.38696
C          2.44734         5.54827        -0.88256
C          3.53292         7.51948         0.14378
C          2.28365         8.28244        -0.04261
C          3.56585        10.46644         0.19942
C          2.28583         9.71414         0.35827
C          3.52537        11.94340        -0.00252
C          2.22264        12.67392         0.10704
C          3.58883        14.77479         0.77632
C          2.26647        14.08750         0.61582
C          3.60941        16.27488         0.95896
C          2.33096        17.04540         0.80990
C          3.61103        19.21330         0.57893
C          2.37925        18.52801         0.63394
C          3.61680        20.61531         0.43578
C          2.40499        21.34186         0.43597
C          3.65273        23.56081         0.21912
C          2.39454        22.80739         0.21719
C          3.69687        24.94055         0.27098
C          2.50163        25.69727         0.61134
C          3.87329        27.77384         0.74480
C          2.61850        27.09514         0.89230
C          3.97442        29.16664         1.03695
C          2.80515        29.87247         1.47917
C          6.19408         3.52893        -1.50260
C          4.97474         4.18521        -1.08636
C          6.08665         6.22641        -0.03942
C          4.88888         5.47846        -0.41838
C          6.08885         7.63956         0.06606
C          4.81688         8.32680         0.31205
C          6.02563        10.47825        -0.16638
C          4.75077         9.79236         0.15396
C          6.03010        11.98094        -0.21430
C          4.79388        12.72247         0.09817
C          6.04277        14.85785         0.14775
C          4.82524        14.08059         0.32790
C          6.11633        16.22867         0.35999
C          4.93164        16.99438         0.83903
C          6.12986        19.17201         0.15460
C          4.91745        18.50381         0.67021
C          6.14363        20.55976        -0.06476
C          4.91914        21.31993         0.32411
C          6.05274        23.47620        -0.49778
C          4.91744        22.79888         0.18947
C          6.09413        24.93990        -0.35757
C          4.97382        25.63588         0.06970
C          6.24202        27.76385         0.14333
C          5.03179        27.07095         0.29643
C          6.35538        29.15764         0.44124
C          5.20864        29.83688         0.88740
C          8.75068         3.51466        -1.37158
C          7.44037         3.71579        -0.89728
C          8.58489         6.26033         0.00062
C          7.34103         5.59377         0.10917
C          8.55624         7.69141         0.11841
C          7.31273         8.36631         0.13982
C          8.49768        10.53608         0.23449
C          7.30940         9.80460         0.11130
C          8.50827        11.98597         0.11661
C          7.31445        12.66539        -0.04209
C          8.57426        14.83126        -0.28091
C          7.26148        14.11637        -0.24596
C          8.53510        16.28856        -0.10452
C          7.36357        16.95217         0.13827
C          8.61913        19.10174        -0.32570
C          7.43772        18.45323         0.35894
C          8.53018        20.49145        -0.88842
C          7.31555        21.24923        -0.43494
C          8.58658        23.41147        -0.95986
C          7.31351        22.68539        -0.77104
C          8.60462        24.83407        -0.96033
C          7.34013        25.61023        -0.75844
C          8.73909        27.70736        -0.27233
C          7.40227        27.08307        -0.45027
C          8.77229        29.18840        -0.14877
C          7.60445        29.84444         0.23073
C         11.18364         3.68943        -1.11706
C          9.88541         4.25121        -0.89072
C         11.01150         6.40473        -0.31629
C          9.79500         5.57320        -0.32977
C         10.97676         7.72455         0.32633
C          9.76884         8.42154         0.35831
C         10.91883        10.57439         0.77866
C          9.73416         9.85560         0.51293
C         10.97306        11.99900         0.59985
C          9.77387        12.70779         0.22666
C         11.02587        14.85396         0.22478
C          9.81216        14.09525         0.04343
C         11.01707        16.24557         0.06873
C          9.81792        16.94254        -0.50772
C         11.06242        19.14468        -0.54972
C          9.81529        18.44078        -0.38218
C         11.05845        20.56711        -0.76157
C          9.82858        21.27213        -0.81639
C         11.06442        23.36382        -1.24958
C          9.82628        22.67767        -0.99554
C         10.94479        24.77102        -1.84125
C          9.79832        25.52475        -1.18820
C         11.07571        27.75391        -1.24059
C          9.92371        26.93585        -0.76423
C         11.16865        29.16914        -0.77660
C         10.01890        29.83959        -0.31923
C         13.64875         3.70442        -0.92020
C         12.38968         4.33291        -0.81939
C         13.57560         6.43383         0.05375
C         12.36885         5.78342        -0.52928
C         13.50127         7.66891         0.70992
C         12.18825         8.31231         0.88596
C         13.37605        10.56731         1.50561
C         12.10449         9.82557         1.22520
C         13.40731        12.05441         1.27256
C         12.18433        12.73035         0.75796
C         13.49457        14.81432         0.62257
C         12.23438        14.12207         0.54445
C         13.50551        16.29198         0.45128
C         12.23537        17.05052         0.19821
C         13.50249        19.14489        -0.40856
C         12.28140        18.45299        -0.33044
C         13.53860        20.55198        -0.71040
C         12.29478        21.26750        -0.89957
C         13.56659        23.31034        -1.58296
C         12.27765        22.65859        -1.22035
C         13.59806        24.80233        -1.78978
C         12.28827        25.53872        -1.90578
C         13.59284        27.77717        -1.77749
C         12.27751        27.04611        -1.77249
C         13.59747        29.18480        -1.29978
C         12.39782        29.82830        -0.89527
C         16.12807         3.79236        -0.87238
C         14.83804         4.40966        -0.63230
C         16.07808         6.32925         0.40307
C         14.79430         5.71937        -0.09156
C         15.97699         7.80864         0.68225
C         14.72282         8.25133         1.42048
C         15.94982        10.60855         1.63073
C         14.66835         9.79252         1.65339
C         15.91312        12.06176         1.33170
C         14.72335        12.73708         1.14206
C         15.92525        14.99055         1.15962
C         14.69455        14.15488         0.86883
C         16.02748        16.19043         0.23784
C         14.75757        16.90569        -0.08192
C         16.06424        19.08686        -0.24663
C         14.77809        18.37841        -0.40338
C         15.99774        20.56427        -0.25480
C         14.76892        21.23252        -0.71656
C         16.12108        23.40155        -1.09258
C         14.86935        22.60179        -1.24877
C         16.06441        24.83083        -1.29687
C         14.87836        25.52062        -1.53373
C         16.11083        27.74327        -1.29967
C         14.89970        26.99660        -1.70597
C         16.06625        29.17524        -1.21436
C         14.80952        29.85763        -1.19495
C         18.57456         3.92428        -1.11312
C         17.29371         4.51354        -0.82054
C         18.53232         6.61505        -0.11523
C         17.22055         6.00619        -0.56401
C         18.53328         7.87048         0.50698
C         17.25662         8.43249         1.00282
C         18.51702        10.64511         1.31829
C         17.25899         9.87989         1.45249
C         18.46639        12.02491         1.43838
C         17.22208        12.74798         0.97860
C         18.41889        14.95022         1.23905
C         17.23623        14.23808         1.19833
C         18.48127        16.36494         0.90981
C         17.30508        16.96494         0.24437
C         18.50566        19.13921         0.16782
C         17.25328        18.42963         0.03021
C         18.55314        20.54830        -0.27074
C         17.28481        21.33752        -0.27874
C         18.55865        23.44771        -0.57457
C         17.32147        22.75797        -0.73286
C         18.63708        24.87684        -0.92241
C         17.34247        25.59509        -1.29639
C         18.52281        27.78464        -0.86579
C         17.31461        27.06521        -1.11607
C         18.49100        29.21663        -0.86199
C         17.25900        29.88695        -1.02400
C         19.73803         4.62578        -0.96152
C         20.96805         6.62292        -0.11762
C         19.75098         5.96663        -0.42370
C         20.97152         7.88506         0.44757
C         19.76043         8.55515         0.77429
C         20.96183        10.67181         1.43786
C         19.75627         9.92762         1.22599
C         20.94312        11.99736         1.77220
C         19.68995        12.75358         1.79766
C         20.91990        15.06387         1.57589
C         19.67222        14.29538         1.69499
C         20.89931        16.38537         1.27771
C         19.66853        17.08374         0.95494
C         20.86218        19.29110         0.82878
C         19.67667        18.50072         0.59067
C         20.92737        20.63036         0.59999
C         19.83717        21.34080        -0.06796
C         20.83046        23.60638         0.31218
C         19.73599        22.82436        -0.07159
C         20.81872        25.00901         0.20074
C         19.77356        25.67404        -0.42691
C         20.92338        27.87954        -0.40460
C         19.75882        27.11520        -0.58726
C         20.89131        29.28194        -0.46172
C         19.69603        29.94801        -0.66646
O         13.17253        11.49373         2.61694
O         11.29148        27.63714        -2.68629
O          1.49944        23.23811        -0.86779
O         16.90894        16.07398        -0.89868
O          9.64297        27.06127         0.69578
O          5.23031        22.18988         1.49537
O         19.51658        13.62914         2.98965
O          4.11582         7.76124         1.46882
O         19.45133        20.78734        -1.38278
O          2.77606        12.38804        -1.21861
O          5.97146        11.17974        -1.45923
O          2.81310        16.65600         2.12189
O          2.94621        14.11776         1.92095
O         17.40040         8.82782         2.44363
O          1.51574         9.95399         1.58843
O         12.87269        17.01086         1.55342
O          7.36634         4.24274         0.42034
O         11.89834         8.82209         2.24665
O         18.27804        25.16319        -2.32878
O          6.30845        22.98757        -1.84498
O         15.31729        10.19239         2.89204
O         13.02438        25.15265        -3.10747
O         14.36612        27.52130        -2.97969
O         16.56202        21.18533         0.99308
O          7.15006        26.62092        -1.81872
O         11.72805         6.51399        -1.62868
O         14.31460        22.63478        -2.63308
O          5.18200        17.85578         1.99515
O         14.71395        17.33433        -1.46637
O          7.88730        14.46982        -1.54856
O          7.75150        18.63011         1.78646
H          6.93277        18.37427         2.28354
O         10.52763        24.55443        -3.21600
H         11.34613        24.53917        -3.76647
O         15.72777        15.56792         2.48594
H         15.53199        14.84108         3.11457
O          8.32538        20.27382        -2.34223
H          8.25210        21.15760        -2.76518
O         14.76180         7.64259         2.74939
H         15.25738         8.27864         3.32279
O         16.88092         6.64329        -1.82927
H         17.56784         6.39913        -2.48416
O          9.91382        16.73984        -1.97004
H          9.32306        15.99553        -2.22344
O         17.31260        12.62745        -0.51085
H         17.15230        13.51430        -0.90597
O         16.41069         5.71040         1.67908
H         15.83098         6.14068         2.35902
O          1.20526        16.48187        -1.18021
H          0.37349        16.16543        -1.59122
H          1.38808         2.54594        -2.23502
H         -0.80962         3.71152        -2.05455
H         -0.94214         6.02726        -1.23081
H         -0.98124         7.92959        -1.01546
H         -1.10467        10.28203        -0.45850
H         -1.15867        12.20462         0.64733
H         -1.13286        14.66151         0.42160
H         -1.10180        16.63185         0.82654
H         -0.99964        19.02930         1.09780
H         -0.91742        20.91792         1.26913
H         -0.92095        23.32018         1.36263
H         -0.81782        25.29754         1.41713
H         -0.62311        27.71235         1.87598
H          0.71948        29.77349         1.97285
H          3.82881         2.61717        -2.03354
H          2.88896        30.94653         1.69972
H          6.12650         2.87599        -2.38618
H          5.26575        30.91344         1.10655
H          8.91887         2.81475        -2.20359
H          7.62719        30.93469         0.37831
H         11.22799         2.64856        -1.47190
H         10.09285        30.91424        -0.09357
H         13.70747         2.66205        -1.26730
H         12.46251        30.88159        -0.58266
H         16.15317         2.72630        -1.14748
H         14.80509        30.92722        -0.93702
H         18.60357         2.87433        -1.44178
H         17.23315        30.98564        -0.98483
H         20.70277         4.14666        -1.18376
H         21.92002         6.12077        -0.34273
H         21.93660         8.36992         0.64615
H         21.93017        10.15435         1.40283
H         21.87750        12.50959         2.03820
H         21.87246        14.56823         1.80821
H         21.85335        16.92639         1.22897
H         21.72261        18.81328         1.31544
H         21.80495        21.19013         0.95168
H         21.72772        23.12747         0.72498
H         21.68117        25.56963         0.58575
H         21.88511        27.38032        -0.22535
H         21.82240        29.84894        -0.32433
H         19.66372        31.04659        -0.68269
