         317
 CSIRO Nanostructure Databank - Neutral Graphene Oxide Data Set
C         30.32697        31.64122         0.18513
C         30.29764        32.83753        -0.11880
C         30.24485        36.10770        -0.35391
C         30.16839        37.30755        -0.06022
C         30.24338        40.51428        -0.07328
C         30.00508        41.71798        -0.29269
C         32.70017        28.77460        -0.08577
C         31.71632        29.43228         0.27094
C         32.72167        31.57296        -0.39360
C         31.37709        30.77586         0.71845
C         32.74530        33.06171        -0.20642
C         31.38544        33.74425        -0.63582
C         32.64459        35.92853        -0.36892
C         31.32223        35.11829         0.00557
C         32.61210        37.40449         0.02757
C         31.32605        38.15580         0.29929
C         32.61724        40.36855         0.08593
C         31.28906        39.65615         0.57649
C         32.79410        41.80445         0.59108
C         30.83843        42.81659         0.07264
C         32.53101        44.42432        -0.37614
C         31.36481        43.97545        -0.54300
C         35.50313        27.31164         0.07550
C         35.21929        28.64515         0.06324
C         34.04220        29.34203        -0.55922
C         35.19342        31.54838         0.37289
C         33.97098        30.80776        -0.07572
C         35.13738        33.05008         0.71489
C         33.86852        33.74834         0.15776
C         35.20964        35.95473         0.06118
C         33.84388        35.26598         0.41098
C         35.13759        37.39531        -0.42826
C         33.81893        38.18552        -0.49321
C         35.18037        40.37334        -0.18511
C         33.93846        39.52195         0.28414
C         35.22466        41.73601         0.55313
C         33.90142        42.50755         0.20874
C         35.13947        44.66095        -0.05281
C         33.91594        43.87391        -0.52785
C         35.36161        46.02803        -0.68038
C         37.79506        27.24911         0.23288
C         36.52028        26.58503         0.42009
C         37.74371        28.63271         0.29442
C         36.46171        29.40475         0.57835
C         37.72980        31.63542         0.38119
C         36.49982        30.84662         0.00962
C         37.66733        33.04917         0.43416
C         36.46059        33.77941         0.46519
C         37.82936        35.94726         0.68794
C         36.44899        35.27781         0.80216
C         38.02448        37.37100         1.16239
C         36.36734        38.24735        -0.53686
C         37.75565        40.27393         0.33178
C         36.45981        39.55952        -0.12325
C         37.80250        41.76001         0.01165
C         36.56823        42.59608         0.40140
C         37.75872        44.68025        -0.25545
C         36.46993        43.86996        -0.46613
C         37.78314        46.04709        -0.38631
C         36.45734        46.60304        -0.53944
C         40.31576        24.46693         0.54580
C         39.24972        25.09318         0.44827
C         40.28787        27.15769        -0.40959
C         39.12834        26.59199         0.47180
C         40.25579        28.73353        -0.23605
C         38.98030        29.43715         0.12402
C         40.29789        31.56943         0.56871
C         38.97711        30.84438         0.74516
C         40.27819        33.05224         0.50749
C         38.97702        33.78329         0.34845
C         40.32073        35.97560         0.82584
C         38.98737        35.25272         0.56463
C         40.28947        37.41137         0.30604
C         39.14210        38.11870         0.45139
C         40.28491        40.30542        -0.13339
C         38.97690        39.51540        -0.23412
C         40.25735        41.70336         0.45013
C         38.99236        42.42336        -0.02371
C         40.29101        44.55819         0.23702
C         39.05786        43.89336        -0.43221
C         40.31461        46.10460         0.14329
C         39.01946        46.82455        -0.16186
C         40.37322        48.84515        -0.64414
C         39.33600        48.17790        -0.64221
C         42.94917        24.52659         0.73460
C         41.59571        24.93476         1.07461
C         42.75242        27.38552         0.53387
C         41.65556        26.55342        -0.01986
C         42.75711        28.74048         0.38628
C         41.56475        29.50670        -0.12732
C         42.79444        31.51010         0.87741
C         41.46887        30.90089         0.44115
C         42.82353        33.03885         0.80807
C         41.55186        33.80992         0.67252
C         42.81485        35.86099         0.10484
C         41.55399        35.15888         0.45384
C         42.81358        37.32797        -0.23323
C         41.46423        38.03909        -0.44221
C         42.76619        40.18783         0.50627
C         41.56317        39.55491        -0.18917
C         42.75688        41.69733         0.24142
C         41.59196        42.39684         0.17851
C         42.83488        44.62872         0.28036
C         41.59300        43.86228        -0.24543
C         42.88770        46.04512        -0.30503
C         41.61891        46.83977        -0.17437
C         43.01636        48.80229        -0.40193
C         41.64461        48.40738         0.05386
C         43.98089        25.19309         0.48085
C         44.96877        27.24585        -0.74706
C         43.75901        26.51574        -0.22751
C         45.13504        28.71275        -0.38896
C         44.00342        29.46133         0.20900
C         45.27895        31.53074        -0.01440
C         44.03352        30.83018         0.29190
C         45.27323        33.03721        -0.14961
C         44.11427        33.74393         0.53625
C         45.30344        35.91640         0.23298
C         44.10705        35.20874         0.32987
C         45.29699        37.33358         0.12965
C         44.07648        38.08804         0.02753
C         45.36690        40.25743         0.02784
C         44.06694        39.47557         0.17166
C         45.26744        41.66224         0.64328
C         44.07124        42.39076         0.06560
C         45.35963        44.59820         0.45993
C         44.12675        43.87610         0.02924
C         45.39212        45.97121         0.26349
C         44.32022        46.66838        -0.53296
C         44.04475        48.12475        -0.29218
C         47.37769        27.31663        -1.11401
C         46.33080        26.69134        -0.93837
C         47.59917        28.79834        -1.19135
C         46.50771        29.35087        -0.18911
C         47.69378        31.62046        -0.72334
C         46.43348        30.85997        -0.31863
C         47.86779        32.84485         0.20995
C         46.58128        33.66724         0.32716
C         47.92424        35.87242         0.54057
C         46.57680        35.15774         0.47886
C         47.88320        37.32688         0.11143
C         46.59157        38.06331         0.08426
C         47.87861        40.23692         0.39491
C         46.56508        39.48592         0.60896
C         47.86542        41.73040         0.56960
C         46.56638        42.45991         0.66458
C         47.77652        44.52413         1.46284
C         46.54352        43.82078         0.83917
C         47.74150        45.96179         0.98343
C         46.66933        46.48952         0.65517
C         50.20932        28.81937        -0.66300
C         48.91379        29.42960        -0.85302
C         50.31663        31.49622        -0.64892
C         48.96594        30.78499        -0.65051
C         50.29031        32.99145        -0.37174
C         49.10482        33.66021        -0.12168
C         50.40100        35.85154        -0.00412
C         49.03117        35.16970        -0.29646
C         50.33793        37.38920        -0.08639
C         49.19375        38.04662         0.23642
C         50.36731        40.30794         0.36118
C         49.15653        39.47615         0.75796
C         50.40966        41.67137         1.03393
C         49.10957        42.44147         0.97996
C         50.38167        44.39628         1.39945
C         49.06951        43.77916         1.27930
C         51.33077        29.30090        -0.44127
C         52.73356        31.52276        -0.34228
C         51.51727        30.70571         0.08913
C         52.60164        32.77163        -0.41350
C         51.54512        33.69809        -0.50203
C         52.73872        36.02138        -0.47710
C         51.54675        35.16360        -0.81510
C         52.73097        37.22908        -0.22189
C         51.60713        38.16243        -0.55856
C         52.79833        40.49098         0.05696
C         51.60961        39.62824        -0.14548
C         52.80274        41.68491         0.39784
C         51.79328        42.74854         0.28292
C         51.49930        43.85519         1.21193
O         50.68365        40.35483        -1.05322
O         44.25142        43.10150        -1.20507
O         42.08100        46.36559        -1.47107
O         32.10990        37.55759         1.38572
O         35.27978        36.24661        -1.35456
O         31.61153        42.45848         1.15493
O         39.44054        29.37929        -1.28058
O         43.72418        33.46729         1.91575
O         39.52841        46.69980         1.21862
O         36.91101        43.05088         1.70328
O         47.99014        41.06845        -0.77006
O         42.57795        26.24835        -1.12210
O         50.75975        31.39127        -2.08341
O         37.38164        37.77840         2.11827
O         41.09590        40.28686        -1.35453
O         46.43796        34.25915         1.65473
O         42.92045        36.35296        -1.31468
O         44.76366        28.26826        -1.75237
O         39.72318        33.39912        -0.85721
O         34.35759        30.83490         1.33035
O         41.51093        48.64671         1.42449
H         41.46092        49.61011         1.58767
O         49.18458        39.34759         2.19720
H         48.29728        39.02845         2.49031
O         51.29018        35.29054        -2.21551
H         51.87921        34.68452        -2.71301
O         45.10596        33.35159        -1.55062
H         45.88524        32.99091        -2.04218
O         34.94658        33.12451         2.15739
H         34.46406        32.30385         2.42251
O         50.81745        41.49008         2.36138
H         50.75437        42.34154         2.84290
O         34.01170        43.58943        -1.91941
H         33.30616        42.95797        -2.17414
O         45.55628        40.43353        -1.38559
H         45.98133        39.63365        -1.76277
O         37.78843        40.21647         1.77280
H         37.56783        41.11516         2.11668
O         48.64953        35.37582        -1.66925
H         49.46452        35.32044        -2.22957
O         41.97514        29.76719        -1.51383
H         41.15083        29.98272        -2.01083
O         32.85297        35.89256        -1.77960
H         32.41821        35.09583        -2.18100
O         51.52599        38.13211        -1.98731
H         51.03310        38.93112        -2.28253
O         40.18160        44.28342         1.66021
H         39.52915        44.93478         2.02040
O         38.89715        30.64942         2.19220
H         37.99619        30.28724         2.40176
O         51.57286        43.11084        -1.01266
H         51.75697        42.35420        -1.60824
O         47.51538        32.04432        -2.10670
H         47.36510        31.20725        -2.61973
O         47.23192        29.24587        -2.50022
H         46.36150        28.82448        -2.71562
O         50.78472        35.55848         1.35117
H         50.09771        35.92760         1.95734
O         48.29145        35.94528         1.93832
H         47.79060        35.23665         2.41089
O         42.81875        31.14485         2.29047
H         43.34516        31.83417         2.75956
O         34.08944        39.13891         1.64007
H         34.51867        39.88437         2.13701
O         38.74151        39.37272        -1.63727
H         39.56515        38.98956        -2.03212
O         36.16537        35.38735         2.21749
H         36.35938        36.32281         2.48991
O         42.56984        39.94555         1.92596
H         43.27949        40.43217         2.40565
O         40.01154        26.83175        -1.75819
H         40.84134        26.89844        -2.27601
O         31.31955        33.80375        -2.05284
H         31.44727        32.87991        -2.38070
O         51.37470        30.74086         1.46720
H         52.13127        30.29308         1.89707
O         42.79750        44.76483         1.71921
H         41.85293        44.71964         2.02137
O         32.29563        31.31573        -1.71479
H         32.66587        30.45250        -2.02491
O         40.13828        41.56712         1.88429
H         39.93565        42.46252         2.24300
O         40.43800        36.05732         2.28214
H         39.76334        36.68791         2.61736
O         46.89268        29.04771         1.16327
H         47.55576        29.70681         1.46298
O         31.61396        30.97427         2.05458
H         31.24568        31.83630         2.33488
O         48.08718        32.22578         1.50678
H         47.82152        32.87865         2.19380
O         33.60393        35.47483         1.80114
H         34.27706        34.94357         2.30182
O         44.64782        46.45291        -1.89327
H         43.85412        46.67950        -2.42939
O         32.40080        40.58767        -1.32204
H         33.29327        40.62383        -1.76626
O         41.65781        43.87187        -1.67118
H         42.50897        43.45020        -1.93814
O         41.09950        37.86996        -1.83271
H         41.85065        38.16319        -2.39043
O         35.10300        41.47902         1.95211
H         35.77172        42.10697         2.38199
O         36.50849        30.74564        -1.44017
H         37.37892        30.38851        -1.72512
O         46.41685        39.29855         2.04155
H         45.93329        40.07826         2.41601
O         44.92857        41.48570         2.06918
H         44.93321        42.37133         2.49652
O         36.40646        29.52929         2.03012
H         36.16661        28.65011         2.39436
O         37.36525        37.54465        -1.13916
H         36.94587        36.73365        -1.52988
O         47.28372        37.73650        -1.17158
O         34.10141        29.29251        -1.98494
H         34.23889        28.36170        -2.26092
O         31.13667        39.84944         1.97016
H         31.55106        39.08146         2.42783
O         39.48376        26.95834         1.81920
H         38.90004        26.47625         2.44179
O         35.05280        44.78876         1.33847
H         35.85862        44.34680         1.75464
O         39.22442        43.91028        -1.86580
H         38.44024        43.45165        -2.24852
O         36.45940        43.51230        -1.85361
H         36.26288        44.31945        -2.37643
O         35.00695        40.72349        -1.59192
H         35.37867        40.00232        -2.14576
O         47.50216        44.53390         2.87657
H         48.20883        45.05004         3.31941
O         31.22446        34.89496         1.38974
H         31.38085        35.75191         1.85314
O         41.47434        25.28114         2.39852
H         42.35512        25.46989         2.77970
O         33.59533        38.44421        -1.88913
H         33.42414        37.56184        -2.30754
O         50.21003        32.51537        -2.81230
H         49.22456        32.35674        -2.78366
