         480
 CSIRO Nanostructure Databank - Neutral Graphene Oxide Data Set
C         37.76155        50.00341         1.82850
C         36.58538        50.69032         2.08639
C         37.84279        52.71895         2.46133
C         36.62650        52.05694         2.40654
C         40.24087        48.60071         1.13395
C         40.25978        49.94303         1.63749
C         39.01641        50.65608         1.88129
C         40.33608        52.72873         2.23731
C         39.05820        52.04079         2.20001
C         40.40165        54.13521         2.34594
C         42.67613        48.47785         1.03965
C         41.39377        47.92609         0.79606
C         42.73131        49.77875         1.72934
C         41.49196        50.57341         1.87033
C         42.79851        52.68282         2.18945
C         41.55484        51.98946         2.13973
C         42.83543        54.08750         2.27119
C         41.61416        54.79876         2.33740
C         45.01295        45.85033        -0.26732
C         43.87554        46.46593         0.20388
C         45.13660        48.51486         0.68289
C         43.88092        47.81108         0.68023
C         45.22480        49.85743         1.14407
C         44.08162        50.47420         1.85483
C         45.18763        52.71199         1.45337
C         44.13202        51.95264         2.26925
C         45.29532        54.16681         1.84773
C         44.11356        54.82471         2.22011
C         45.33579        56.93482         2.29188
C         44.17185        56.21524         2.48955
C         47.47053        44.50349        -1.07481
C         47.45973        45.89985        -0.84903
C         46.25689        46.53955        -0.34724
C         47.49804        48.63074        -0.05729
C         46.29365        47.88297         0.11713
C         47.56970        49.98683         0.40129
C         46.43338        50.57548         0.99510
C         47.79125        52.72876         1.41188
C         46.50290        51.96293         1.50848
C         47.77146        54.21464         1.45146
C         46.51910        54.88532         1.70861
C         47.74224        57.04330         1.59068
C         46.52892        56.29966         1.87159
C         47.73772        58.45674         1.51553
C         49.83862        44.53149        -1.62866
C         48.62457        43.84192        -1.45632
C         49.85949        45.94197        -1.51146
C         48.65385        46.65356        -1.10613
C         49.55735        49.01919        -1.20168
C         48.57617        48.06773        -0.79952
C         49.82380        50.22103        -0.57456
C         48.78677        50.75907         0.24910
C         50.14532        52.79077         0.56980
C         48.90513        52.07682         0.71462
C         50.26257        54.09046         1.35355
C         48.96717        54.90570         1.34034
C         50.13582        57.11490         1.03985
C         48.96453        56.35376         1.34084
C         50.09805        58.51068         0.92223
C         48.87183        59.16774         1.15957
C         52.27752        41.60499        -1.57178
C         51.11171        42.29145        -1.69973
C         52.38305        44.41030        -1.61747
C         51.08881        43.75994        -2.05099
C         52.39441        45.80833        -1.43347
C         51.18362        46.56955        -1.58153
C         52.47960        48.65326        -1.19139
C         51.36007        47.94855        -1.69249
C         52.38306        50.03669        -0.52501
C         51.13898        50.94446        -0.85054
C         52.59914        52.75543         0.37109
C         51.24559        52.19875         0.00046
C         52.60990        54.25809         0.27227
C         51.49423        54.91964         0.97882
C         52.60123        57.11558         0.32592
C         51.42372        56.41100         0.86982
C         52.61855        58.55649         0.47260
C         51.29187        59.28444         0.36315
C         52.56815        61.34461         1.03878
C         51.40548        60.71428         0.83572
C         54.84384        40.11633        -1.33188
C         54.78975        41.49450        -1.60406
C         53.57355        42.23853        -1.64628
C         54.84462        44.37802        -1.52118
C         53.59669        43.68176        -1.63893
C         54.84944        45.74124        -1.24643
C         53.63310        46.48892        -1.20586
C         54.89809        48.65193        -0.80753
C         53.63593        47.89911        -0.98199
C         54.87373        50.09740        -1.26479
C         53.68144        50.81469        -0.68282
C         55.04491        52.90660        -0.33055
C         53.76885        52.10199        -0.30533
C         54.73071        54.24702        -1.07301
C         53.66681        54.96451        -0.23438
C         55.05888        57.02985         0.03386
C         53.72841        56.39511        -0.03060
C         55.09208        58.48556         0.48661
C         53.81007        59.22497         0.56041
C         55.04687        61.42261         0.35924
C         53.90991        60.65790         1.03712
C         55.02213        62.84150         0.28500
C         57.30039        40.04280        -1.12253
C         56.04656        39.42898        -1.09203
C         57.37675        41.42382        -1.62552
C         56.07611        42.17314        -1.89093
C         57.40834        44.29862        -1.53217
C         56.10939        43.69406        -2.01444
C         57.42047        45.71993        -1.16743
C         56.13386        46.42349        -0.94429
C         57.36514        48.63934        -1.51123
C         56.18040        47.91743        -0.88954
C         57.49577        50.05297        -0.92138
C         56.19116        50.81387        -1.02442
C         57.43280        52.92346        -1.23069
C         56.22236        52.16763        -0.91324
C         57.34173        54.29591        -1.34424
C         56.04085        55.10150        -1.35451
C         57.44759        57.09206        -0.73976
C         56.22464        56.39489        -0.59553
C         57.51482        58.54458        -0.34648
C         56.33374        59.27897         0.21125
C         57.40847        61.49152        -0.33125
C         56.22542        60.75474         0.02499
C         57.39793        62.92347        -0.27315
C         56.15886        63.56672        -0.00852
C         59.68549        37.37986         0.05670
C         58.51534        38.03598        -0.29242
C         59.78573        40.05406        -0.83138
C         58.52938        39.37833        -0.73668
C         59.82513        41.47988        -1.14904
C         58.63835        42.17139        -1.43264
C         59.86177        44.34240        -1.28492
C         58.61875        43.60859        -1.45793
C         59.89004        45.75965        -1.33742
C         58.66887        46.49624        -1.32928
C         59.88035        48.62100        -1.55781
C         58.66591        47.88204        -1.39698
C         59.85581        50.03798        -1.71587
C         58.68379        50.79212        -1.49180
C         59.86427        52.90756        -1.94524
C         58.65230        52.19910        -1.57489
C         59.79508        54.37564        -2.21854
C         58.50313        55.08609        -1.81539
C         59.76594        57.27167        -1.73542
C         58.53342        56.50864        -1.43590
C         59.82289        58.62488        -1.09137
C         58.51308        59.37388        -1.13336
C         59.82982        61.52450        -0.73886
C         58.60697        60.81392        -0.67256
C         59.84626        62.95478        -0.62201
C         58.62081        63.65398        -0.46318
C         59.84026        65.77091        -0.56890
C         58.66054        65.08511        -0.45344
C         62.05868        36.36699         1.50041
C         62.18882        37.23457         0.26693
C         60.93035        38.03018        -0.02503
C         62.29715        39.99871        -0.69656
C         60.97674        39.35506        -0.49389
C         62.32725        41.48571        -0.99362
C         61.05486        42.21309        -1.07978
C         62.33434        44.34837        -1.07179
C         61.08364        43.61999        -1.15225
C         62.34843        45.76082        -1.19604
C         61.12383        46.48508        -1.36276
C         62.36882        48.60921        -1.53607
C         61.12112        47.89759        -1.51724
C         62.39049        50.05816        -1.78144
C         61.09584        50.72773        -2.22089
C         62.33076        52.96556        -2.25170
C         61.06298        52.23162        -2.05456
C         62.34862        54.41675        -2.04885
C         61.11466        55.12554        -2.56320
C         62.37539        57.37270        -2.01695
C         61.05260        56.62310        -2.20825
C         62.35154        58.76157        -1.48142
C         61.09143        59.37104        -0.98781
C         62.29676        61.51811        -0.86577
C         61.07473        60.84047        -0.88278
C         62.30637        62.93530        -0.80694
C         61.09699        63.65763        -0.71543
C         62.31442        65.82717        -0.77129
C         61.10417        65.10332        -0.68660
C         62.33263        67.24822        -0.88955
C         64.50585        36.02096         1.39432
C         63.14761        35.80226         2.03095
C         64.60090        37.45920         0.91164
C         63.45440        38.06731         0.38294
C         64.71761        40.12152        -0.05456
C         63.50615        39.39286        -0.09974
C         64.74020        41.53704        -0.39012
C         63.56222        42.23399        -0.70921
C         64.78439        44.38293        -0.70143
C         63.55928        43.65199        -0.83761
C         64.78224        45.79643        -0.81751
C         63.57861        46.49170        -1.07794
C         64.80648        48.69274        -1.18483
C         63.54792        47.91792        -1.25832
C         64.87650        49.98297        -1.96824
C         63.57160        50.74065        -1.86847
C         64.87616        52.92897        -1.81647
C         63.62893        52.19666        -2.16831
C         64.87358        54.32547        -1.73643
C         63.65251        55.08302        -2.10783
C         64.84085        57.20607        -1.23185
C         63.69167        56.62177        -1.96114
C         64.66493        58.52306        -0.47234
C         63.57415        59.41608        -0.97595
C         64.80082        61.49302        -0.51584
C         63.55872        60.77472        -0.79819
C         64.84924        62.87095        -0.61711
C         63.60737        63.61568        -0.95199
C         64.87637        65.88849        -0.68390
C         63.61456        65.12650        -0.91789
C         64.76429        67.21547        -1.03843
C         63.51149        67.90497        -1.13302
C         66.81552        33.54822         2.94857
C         65.66611        34.19388         2.66187
C         66.98426        36.20081         1.93718
C         65.63451        35.66945         2.37366
C         67.05589        37.47056         1.34133
C         65.84173        38.14315         0.91426
C         67.17449        40.13544         0.32933
C         65.90230        39.47532         0.42289
C         67.21768        41.47184        -0.26714
C         65.97234        42.25966        -0.35308
C         67.28528        44.36136        -0.52271
C         66.00702        43.64963        -0.49408
C         67.29132        45.74130        -0.75156
C         66.05280        46.53456        -0.43668
C         67.33264        48.65288        -1.34477
C         66.09140        47.99706        -0.88255
C         67.34046        50.06307        -1.51008
C         66.11166        50.78161        -1.61181
C         67.32388        52.91332        -1.41157
C         66.09485        52.19224        -1.61237
C         67.27912        54.32255        -1.19104
C         66.05720        55.03506        -1.34512
C         67.10467        57.01799        -0.20313
C         65.97468        56.44474        -0.99701
C         67.09452        58.47558         0.20150
C         65.94021        59.30194        -0.22972
C         67.12334        61.40565         0.44033
C         65.97224        60.67031        -0.21321
C         67.37030        62.81404        -0.15937
C         66.13327        63.63563        -0.55147
C         67.45414        65.84075         0.01307
C         66.19638        65.16606        -0.55381
C         67.51706        67.28890         0.32136
C         66.64155        68.26495        -0.20212
C         67.32638        69.95056         1.38666
C         66.54869        69.56670         0.30020
C         69.18665        32.39254         4.20268
C         69.29218        33.58198         3.43857
C         68.10866        34.20552         2.87051
C         69.47219        36.07335         1.93731
C         68.16584        35.47976         2.27978
C         69.52180        37.49699         1.56052
C         68.32643        38.14492         1.19689
C         69.63306        40.21155         0.70375
C         68.36739        39.49588         0.70081
C         69.69354        41.57342         0.39243
C         68.55592        42.22646        -0.23338
C         69.76320        44.40397        -0.31961
C         68.52135        43.68812        -0.35384
C         69.80584        45.73992        -0.81012
C         68.53502        46.37311        -1.17579
C         69.85248        48.54981        -1.71235
C         68.52983        47.85663        -1.56494
C         69.85330        50.05861        -1.83932
C         68.57982        50.79719        -1.60337
C         69.84570        52.91897        -1.34134
C         68.56163        52.18529        -1.47378
C         69.78998        54.34515        -0.83737
C         68.47017        55.01991        -0.72070
C         69.58467        56.96091         0.37935
C         68.39169        56.28651        -0.20358
C         69.62507        58.42461         0.29054
C         68.38188        59.17883         0.65786
C         69.62002        61.34714         0.47258
C         68.43283        60.65897         0.37552
C         69.66357        62.77826         0.71637
C         68.36676        63.57697         0.74218
C         69.77309        65.63451         0.92258
C         68.52337        65.05143         0.39170
C         69.69900        67.06992         1.49364
C         68.44887        67.79556         1.27983
C         69.23217        69.49277         2.94400
C         68.31538        69.07705         1.87424
C         68.99691        70.67840         3.67020
C         71.51809        32.51811         4.82323
C         70.27928        31.86557         4.87596
C         71.65156        33.68477         4.07687
C         70.56418        34.21943         3.36284
C         71.91667        36.28335         2.63284
C         70.73639        35.41107         2.50087
C         71.94063        37.53575         2.11870
C         70.77551        38.18632         1.54657
C         72.08391        40.25737         1.01886
C         70.83215        39.52968         1.12661
C         72.12811        41.59390         0.81895
C         70.86777        42.41935         0.83465
C         72.15882        44.46808         0.02754
C         70.95608        43.75601         0.11614
C         72.20777        45.76839        -0.46759
C         71.03675        46.46012        -0.88310
C         72.28610        48.60036        -1.23761
C         71.08057        47.83721        -1.29974
C         72.34394        49.95533        -1.39494
C         71.18310        50.82030        -1.80731
C         72.11240        52.70289        -0.39601
C         71.07315        52.13641        -1.06740
C         72.03338        54.03458         0.14184
C         70.93920        54.82808        -0.04167
C         72.13261        56.98994         0.53986
C         70.87011        56.20741         0.51628
C         72.14350        58.32207         0.37494
C         70.90608        59.10470         0.16705
C         72.13114        61.31982         0.78587
C         70.91939        60.63820         0.30609
C         72.07404        62.60607         1.19931
C         70.84313        63.37164         1.12845
C         71.82302        65.34407         2.26886
C         70.84080        64.78132         1.47503
C         71.71847        66.65163         2.81087
C         70.63063        67.46638         2.55461
C         71.20076        69.11545         4.34196
C         70.35741        68.69417         3.29009
C         70.95174        70.29238         5.03726
C         69.84212        71.07679         4.70079
O         57.46766        58.87103         1.06308
O         51.87614        55.73924         2.14012
O         63.08830        52.51513        -3.50529
O         56.81071        41.55578        -3.00009
O         50.34897        48.68826        -2.31049
O         65.38691        48.83319         0.14996
O         68.06244        41.56099        -1.45825
O         70.07477        54.04247        -2.25087
O         55.30855        57.43786         1.45908
O         54.18201        53.88698        -2.29550
O         70.31886        66.76447         0.19405
O         60.17237        57.31247        -3.14895
O         71.03656        60.01805        -1.01247
O         66.43848        64.39430        -1.78083
O         62.43144        58.52174        -2.93017
O         56.82552        45.84731         0.22358
O         69.86255        49.21134        -3.04029
O         66.70239        57.43347         1.18091
O         58.80810        54.74213        -3.22204
O         43.56697        49.67702         2.96640
O         47.34024        52.11826         2.68431
O         68.39498        46.81721        -2.59868
O         63.95819        55.99402        -3.23917
O         70.02016        56.36633         1.71260
O         55.68179        48.41798         0.40490
O         62.49762        40.47666        -2.06720
O         70.31970        35.19948         1.11323
O         63.68787        64.37806        -2.21010
O         65.87480        68.00015        -1.33466
O         60.51066        58.66605         0.18681
O         66.05405        46.54289         1.03286
H         65.58736        47.37290         1.29836
O         54.29933        60.58010         2.44358
H         55.05424        59.95718         2.52004
O         54.68046        50.06314        -2.70591
H         54.53617        50.98564        -3.01016
O         64.63432        35.14759         0.25243
H         63.87357        35.34688        -0.34959
O         64.15657        58.10811         0.84598
H         64.92498        57.70875         1.32851
O         57.81279        49.94247         0.49226
H         57.05520        49.48363         0.93077
O         67.92684        63.69738         2.12048
H         67.55298        62.82448         2.40621
O         62.37839        36.33102        -0.87604
H         62.47569        36.88625        -1.67922
O         44.54575        52.00114         3.64787
H         44.17097        51.20565         4.08971
O         58.03655        59.38685        -2.50362
H         58.79817        59.47810        -3.11445
O         68.07066        62.53053        -1.39136
H         67.86254        63.26130        -2.02195
O         65.01128        49.60705        -3.36959
H         64.97710        50.42359        -3.91228
O         68.32981        59.14215         2.14454
H         68.09630        58.21202         2.38347
O         50.47879        53.67546         2.73685
H         50.81058        54.47494         3.21112
O         66.71402        61.44317         1.84765
H         67.04116        60.60114         2.25484
O         52.22126        49.71163         0.87954
H         53.08093        49.40223         1.23538
O         61.22804        55.06494        -4.00170
H         60.50724        55.62887        -4.36427
O         57.07051        48.72905        -2.92565
H         57.79921        49.21720        -3.36475
O         55.41715        53.22795         1.02433
H         54.64273        53.04790         1.61306
O         52.81397        52.47092         1.80121
H         52.01466        52.78364         2.30671
O         51.19645        51.33721        -2.23468
H         51.00418        50.53666        -2.77451
O         71.47490        51.21473        -3.18028
H         71.15603        50.47749        -3.75198
O         65.30622        36.35521         3.62542
H         65.98068        36.10074         4.28963
O         70.61904        42.78137         2.24695
H         70.63249        41.94839         2.76498
O         55.86452        55.59333        -2.70213
H         55.15172        54.99087        -3.08808
O         51.01269        59.35765        -1.07596
H         51.72709        59.88192        -1.49538
O         44.73478        52.66408         0.06942
H         45.21489        53.34749        -0.44304
O         51.08186        43.81574        -3.52344
H         51.92105        43.41609        -3.83736
O         56.10765        43.99634        -3.45139
H         56.58088        43.24735        -3.88805
O         61.08359        50.53652        -3.68331
H         61.77682        51.14339        -4.04589
H         37.70384        48.93115         1.59951
H         35.62200        50.16341         2.04875
H         37.85109        53.78409         2.72814
H         35.69514        52.59966         2.61917
H         39.27858        48.11282         0.93353
H         39.47986        54.72883         2.39981
H         41.30450        46.93527         0.33052
H         41.61287        55.89594         2.37510
H         44.93235        44.81250        -0.61612
H         42.94088        45.88952         0.22401
H         45.32591        58.01588         2.48503
H         43.27972        56.74868         2.84341
H         46.56258        43.90959        -0.91005
H         46.80586        59.01081         1.69093
H         48.57630        42.75523        -1.60274
H         48.80014        60.25875         1.05706
H         52.23019        40.51733        -1.41743
H         50.17153        41.72248        -1.68336
H         52.54790        62.39818         1.35680
H         50.47475        61.29791         0.90633
H         53.90923        39.55315        -1.20530
H         54.09501        63.38143         0.52011
H         55.96608        38.37093        -0.80726
H         56.09995        64.66326         0.00513
H         59.63985        36.32916         0.37378
H         57.56620        37.48856        -0.22625
H         59.80559        66.86790        -0.55011
H         57.72795        65.65587        -0.35124
H         61.06647        36.21155         1.94971
H         61.39566        67.81941        -0.88055
H         63.06876        35.16829         2.92671
H         63.52480        68.98221        -1.34301
H         66.77634        32.47880         3.19824
H         64.70958        33.65215         2.69458
H         67.21468        70.96389         1.79195
H         65.84561        70.26984        -0.16427
H         68.22318        31.87233         4.28145
H         68.12592        71.30520         3.43709
H         72.38523        32.10376         5.35519
H         70.16948        30.94035         5.45826
H         72.63527        34.17084         4.02561
H         72.80674        35.90656         3.15637
H         72.86245        38.12382         2.22668
H         73.02828        39.69694         1.06837
H         73.10432        42.09364         0.74771
H         73.09723        44.01152         0.37050
H         73.18464        46.26701        -0.50579
H         73.22586        48.08001        -1.00474
H         73.33135        50.43827        -1.37206
H         73.04237        52.14135        -0.23223
H         72.88808        54.40041         0.72786
H         73.08427        56.44716         0.63564
H         73.10431        58.85312         0.32447
H         73.09359        60.79140         0.76300
H         72.99491        63.10772         1.52622
H         72.65556        64.72113         2.62452
H         72.48153        66.95713         3.53926
H         72.07201        68.50871         4.62294
H         71.62093        70.60212         5.85166
H         69.63405        72.00408         5.25213
