         661
 CSIRO Nanostructure Databank - Neutral Graphene Oxide Data Set
C          5.93831        31.76601         0.31142
C          5.92428        33.12036         0.37384
C          8.42740        27.45248         0.34733
C          8.33211        28.83726         0.75624
C          7.15868        29.63815         0.39245
C          8.40196        31.73962         0.72420
C          7.15822        31.00607         0.51546
C          8.39952        33.14669         0.68079
C          7.14454        33.87854         0.58685
C          8.37155        36.04190         0.95852
C          7.12867        35.24364         0.67730
C          8.30714        37.43000         0.30578
C         10.89973        23.27532        -0.63159
C         10.88619        24.52391         0.26698
C          9.65478        25.35625         0.09776
C         10.91226        27.41844         0.55887
C          9.64945        26.72850         0.36901
C         10.96684        28.81873         1.14957
C          9.64685        29.59553         1.08264
C         10.86246        31.74584         0.68127
C          9.63992        31.03897         0.83152
C         10.86736        33.15712         0.55591
C          9.63445        33.87783         0.63765
C         10.84519        36.01320         0.38295
C          9.63607        35.29168         0.60197
C         10.83872        37.45261         0.35867
C          9.60722        38.18148         0.46018
C         10.83186        40.29888         0.58911
C          9.60816        39.55185         0.61498
C         10.86489        41.69348         0.75788
C         13.34385        18.90700        -0.51522
C         13.35232        20.32307        -0.37602
C         12.15156        21.09145        -0.52111
C         13.37783        23.16588        -0.13599
C         12.15946        22.46947        -0.39690
C         13.39323        24.60009         0.01692
C         12.15879        25.32609         0.12144
C         13.37657        27.49273         0.22729
C         12.11501        26.72692         0.32247
C         13.42237        28.94018         0.57108
C         12.16342        29.63781         0.70887
C         13.36004        31.80582         0.61916
C         12.11393        31.01780         0.67844
C         13.30405        33.20440         0.20922
C         12.09390        33.88367         0.30494
C         13.31744        36.03912         0.08364
C         12.07331        35.31989         0.20865
C         13.30183        37.45448         0.15567
C         12.06948        38.15535         0.25041
C         13.23019        40.32529         0.06444
C         12.04532        39.59942         0.29601
C         13.29171        41.69542         0.34683
C         12.08922        42.40423         0.70031
C         13.38076        44.50795         0.91324
C         12.15168        43.80156         0.91402
C         13.43699        45.90241         1.15514
C         15.73566        14.57071        -0.82809
C         15.75492        16.01342        -0.80345
C         14.54838        16.74048        -0.74163
C         15.79512        18.81175        -0.36469
C         14.54660        18.14335        -0.53893
C         15.82720        20.22803         0.13840
C         14.56739        21.00847        -0.13109
C         15.84313        23.12332         0.09129
C         14.60118        22.42722        -0.04046
C         15.87049        24.53031         0.12775
C         14.64189        25.25795         0.12838
C         15.91058        27.40380         0.62469
C         14.66628        26.73359         0.13541
C         15.95171        28.92949         0.77903
C         14.62705        29.60494         0.51253
C         15.87154        31.75788         0.00363
C         14.68506        31.07691         0.56041
C         15.83856        33.15952        -0.24707
C         14.49974        33.86618        -0.41586
C         15.72690        36.06670        -0.50264
C         14.54608        35.34377        -0.13919
C         15.77418        37.44765        -0.40519
C         14.60232        38.23563         0.15308
C         15.63161        40.41522        -0.66830
C         14.36460        39.57587        -0.59533
C         15.71270        41.75940        -0.08251
C         14.55747        42.40114         0.33593
C         15.85833        44.43574         0.89364
C         14.60730        43.79247         0.71481
C         15.88678        45.80024         1.18446
C         14.67030        46.56354         1.26896
C         15.91238        48.69351         1.57686
C         14.72155        47.98918         1.41634
C         15.95122        50.10943         1.51674
C         18.03031        10.16496        -0.02063
C         17.71663        11.54602        -0.00481
C         16.74936        12.33628        -0.61397
C         18.19156        14.45286        -0.86998
C         16.86660        13.78216        -0.68615
C         18.24280        16.00479        -0.96958
C         16.99206        16.72329        -0.73300
C         18.27769        18.83383        -0.33799
C         17.00863        18.11775        -0.46990
C         18.33172        20.21143        -0.28937
C         17.03935        20.98910        -0.40119
C         18.35668        23.10376        -0.24400
C         17.13990        22.36345         0.26280
C         18.34112        24.52713        -0.17252
C         17.14672        25.21595         0.10178
C         18.49156        27.42503         0.47952
C         17.18915        26.63575         0.51494
C         18.32038        28.86340        -0.04881
C         17.12699        29.58852         0.09209
C         18.26201        31.67835        -0.55367
C         17.07187        30.98959        -0.19745
C         18.22665        33.10469        -1.07004
C         16.97663        33.85834        -0.66639
C         18.26093        36.05179        -1.28628
C         16.91658        35.29743        -0.99463
C         18.30122        37.56620        -1.09393
C         16.86304        38.16937        -1.16446
C         18.18621        40.31109        -0.56392
C         16.90348        39.67851        -0.92261
C         18.24817        41.64916        -0.30125
C         17.01142        42.52767        -0.21467
C         18.48900        44.27837         1.05778
C         17.09653        43.53525         0.95543
C         18.42120        45.80668         1.01807
C         17.17325        46.45766         1.49508
C         18.48190        48.68443         1.75258
C         17.16952        47.93999         1.79917
C         18.47412        50.20956         1.87876
C         17.13824        50.85508         1.58126
C         18.35073        52.99756         1.42638
C         17.13807        52.25230         1.54013
C         18.35674        54.37819         1.62488
C         20.53514         6.25427         1.62982
C         20.54503         7.62602         0.99080
C         19.36269         8.29698         0.74204
C         20.59963        10.34987         0.13108
C         19.32055         9.66427         0.31699
C         20.74678        11.73888        -0.15957
C         19.64708        12.63558         0.01268
C         20.71725        14.53378        -1.10979
C         19.50037        13.84119        -0.62840
C         20.74813        16.00266        -0.87834
C         19.54183        16.66022        -0.69091
C         20.86021        18.82227        -0.33477
C         19.52328        18.05580        -0.25026
C         20.80352        20.27651        -0.52535
C         19.57515        20.94589        -0.39948
C         20.76870        23.10181        -0.77860
C         19.54697        22.39318        -0.47809
C         20.76507        24.52726        -0.73459
C         19.58382        25.25344        -0.36549
C         20.81294        27.35466        -0.45299
C         19.61146        26.65026        -0.19746
C         20.76333        28.83444        -0.56955
C         19.49747        29.57170        -0.36760
C         20.71883        31.76747        -0.35278
C         19.47362        30.98037        -0.52136
C         20.72573        33.21761        -0.59497
C         19.50060        33.91112        -0.82986
C         20.75968        36.10641        -0.91086
C         19.48756        35.29400        -0.98140
C         20.61082        37.41685        -0.15445
C         19.40134        38.07122        -0.16091
C         20.66485        40.22052        -0.94693
C         19.37283        39.45241        -0.83230
C         20.68368        41.70510        -0.76221
C         19.51595        42.36048        -0.29548
C         20.75095        44.43603        -0.01733
C         19.55684        43.71029         0.13121
C         20.87602        45.78996         0.64827
C         19.56029        46.52609         0.80915
C         20.85176        48.75350         0.76225
C         19.67724        47.96025         1.20872
C         20.79595        50.18626         0.78368
C         19.61122        50.89742         1.13344
C         20.69764        53.05575         0.54291
C         19.57574        52.29704         1.03622
C         20.55190        54.50082         0.56004
C         19.49327        55.16241         1.27120
C         20.64709        57.34802         1.03723
C         19.54243        56.56625         1.45875
C         20.73459        58.76407         1.24104
C         23.07087         3.60572         2.55933
C         21.88162         4.31989         2.41452
C         23.10149         6.20647         1.47726
C         21.88699         5.60581         1.84616
C         23.06234         7.48424         0.66500
C         21.76639         8.24729         0.60978
C         23.10114        10.10123        -0.46490
C         21.79665         9.55676         0.13304
C         23.18143        11.61945        -0.51930
C         21.99922        12.33625        -0.56647
C         23.25759        14.53156        -0.91325
C         21.99880        13.76511        -0.98287
C         23.25667        15.90628        -0.96806
C         22.02651        16.67817        -0.83097
C         23.28309        18.84076        -0.84287
C         22.07151        18.08278        -0.71742
C         23.26946        20.23412        -0.92033
C         22.01403        20.97648        -0.85546
C         23.20624        23.09474        -1.52346
C         21.97543        22.37134        -1.02256
C         23.21362        24.54899        -1.09393
C         22.02079        25.23806        -0.85601
C         23.24763        27.46185        -0.90050
C         22.00230        26.67294        -0.70482
C         23.27929        28.79789        -0.16547
C         22.04262        29.59014        -0.52344
C         23.27937        31.77492        -0.46493
C         22.02361        31.04642        -0.20974
C         23.21014        33.17852        -0.55138
C         21.97773        33.89261        -0.56474
C         23.19078        36.04097        -0.39195
C         22.00241        35.33250        -0.56435
C         23.19529        37.46841        -0.19185
C         21.89611        38.18264         0.15215
C         23.14777        40.40904        -0.20060
C         21.93659        39.54159        -0.53450
C         23.19403        41.66323        -1.08921
C         21.89672        42.41928        -0.82918
C         23.12182        44.58717        -0.78941
C         21.90083        43.79372        -0.51680
C         23.11104        46.02147        -0.43060
C         22.01043        46.63768         0.10786
C         23.20851        48.85177         0.16499
C         22.01596        48.08449         0.34984
C         23.19699        50.23458         0.31300
C         21.96575        50.94716         0.45918
C         23.20592        53.03175        -0.02911
C         21.92649        52.36734         0.27548
C         23.29197        54.35157        -0.49964
C         21.44796        55.37511        -0.08562
C         22.91527        57.39763        -0.16498
C         21.66433        56.70282         0.27257
C         22.97817        58.86975         0.11425
C         21.82313        59.51728         0.79587
C         23.07510        61.63223         0.73244
C         21.90887        60.91136         1.03036
C         24.27466         4.16831         2.14330
C         25.63881         5.96172         1.17679
C         24.32877         5.47755         1.61885
C         25.98834         7.29735         1.25633
C         24.13959         8.47279         1.01884
C         25.67395        10.11679        -0.12227
C         24.31509         9.58024         0.27450
C         25.65660        11.62578        -0.28398
C         24.47978        12.27549        -0.61822
C         25.80433        14.46985        -1.03311
C         24.49525        13.71684        -1.02501
C         25.77807        15.91528        -0.89001
C         24.53391        16.66851        -1.29872
C         25.80894        18.85421        -1.06793
C         24.57230        18.07126        -0.67064
C         25.78993        20.21777        -1.11542
C         24.52566        20.97427        -1.06937
C         25.77691        23.09336        -1.44429
C         24.50734        22.33966        -1.26400
C         25.76629        24.58460        -1.29506
C         24.50745        25.24840        -0.79591
C         25.81716        27.41581        -0.84957
C         24.52931        26.73245        -1.09741
C         25.82772        28.87917        -0.67088
C         24.55874        29.60672        -0.35677
C         25.72426        31.75876        -0.81718
C         24.48309        31.06152        -0.61001
C         25.73292        33.17336        -0.75905
C         24.44737        33.93223        -0.92236
C         25.64585        36.01473        -0.28474
C         24.46510        35.34492        -0.40813
C         25.68670        37.48811        -0.57694
C         24.38691        38.18899        -0.24983
C         25.65168        40.30352        -0.37939
C         24.44107        39.62219        -0.28121
C         25.66493        41.75118        -0.56099
C         24.47475        42.42990        -0.80405
C         25.75801        44.65327        -1.08483
C         24.44193        43.87804        -1.04571
C         25.70351        45.95623        -0.29665
C         24.42239        46.69771        -0.24191
C         25.77034        48.82824        -0.13110
C         24.43406        48.18728        -0.41692
C         25.77592        50.26655         0.20284
C         24.47868        50.96859         0.42775
C         25.66920        53.15738         0.15560
C         24.46544        52.42707         0.22649
C         25.64259        54.56195        -0.00016
C         24.40128        55.18350        -0.27897
C         25.54833        57.44666         0.00046
C         24.24004        56.64463        -0.06152
C         25.46783        58.91277        -0.10628
C         24.28758        59.58696         0.12732
C         24.24233        61.00277         0.31074
C         27.05336         8.07987         0.74334
C         28.08360        10.25994         0.62082
C         26.92721         9.49684         0.53361
C         28.12486        11.67814         0.39930
C         26.97888        12.29941        -0.32442
C         28.19823        14.56678        -0.16718
C         27.06811        13.75269        -0.67864
C         28.26950        15.91457        -0.40366
C         27.07283        16.60173        -0.97811
C         28.43163        18.77770        -1.03070
C         27.08258        18.08065        -1.21628
C         28.27819        20.25033        -0.78015
C         27.10151        20.94071        -1.41798
C         28.08039        23.10496        -0.51710
C         27.04404        22.41672        -1.10010
C         28.10199        24.55801        -0.43361
C         27.00485        25.27573        -0.85600
C         28.24466        27.40601        -0.41351
C         26.99704        26.71428        -0.72823
C         28.35414        28.82001        -0.87217
C         27.03988        29.60927        -1.15270
C         28.05070        31.90266        -1.40494
C         26.94403        31.08737        -1.11716
C         28.17352        33.22958        -0.96017
C         26.94908        33.87459        -0.70843
C         28.20537        35.97412        -0.00034
C         26.91852        35.26756        -0.22439
C         28.17755        37.46992         0.33487
C         26.91964        38.21188        -0.09422
C         28.15304        40.35207        -0.15428
C         26.92369        39.59981        -0.19076
C         28.17587        41.72978        -0.42501
C         26.94052        42.44638        -0.56953
C         28.20496        44.54188        -0.76319
C         26.99092        43.85034        -0.73465
C         28.17986        46.01945        -0.87871
C         27.03535        46.68740        -0.15334
C         28.23731        48.92368        -0.29054
C         26.96161        48.18812        -0.29517
C         28.24699        50.33222        -0.21688
C         26.94746        51.08201        -0.30128
C         28.20471        53.23060        -0.12759
C         26.99687        52.45437         0.37042
C         28.11689        54.62742        -0.24562
C         26.87846        55.33827        -0.11308
C         26.79841        56.72039        -0.25033
C         29.20871        12.42932         0.76297
C         30.53312        14.58162         0.63936
C         29.19038        13.93236         0.78142
C         30.63594        15.94874         0.46506
C         29.40746        16.70225         0.08765
C         30.29638        18.93678         0.63526
C         29.32842        18.09021         0.00401
C         30.46195        20.26930         0.34647
C         29.34025        20.93875        -0.27523
C         30.27137        23.03271         0.89059
C         29.18982        22.34785         0.10977
C         30.02769        24.48252         1.04135
C         29.17806        25.25236         0.27302
C         30.48672        27.46691         0.69491
C         29.27324        26.71400         0.20274
C         30.57663        28.93663         0.37717
C         29.57467        29.56233        -0.51003
C         30.81285        31.72032        -0.33498
C         29.85147        30.82629        -0.95590
C         30.72464        33.11219        -0.36466
C         29.54313        33.92061        -0.97099
C         30.67561        36.01427        -0.18554
C         29.48301        35.32437        -0.37461
C         30.70145        37.45811        -0.05755
C         29.39597        38.18862        -0.26506
C         30.69750        40.32538        -0.27222
C         29.44058        39.65028         0.21722
C         30.66418        41.71092        -0.56380
C         29.44623        42.41962        -0.60467
C         30.67082        44.57705        -0.81986
C         29.46615        43.85493        -0.75403
C         30.73438        46.05151        -0.50397
C         29.45479        46.78879        -0.79687
C         30.70764        48.93635        -0.52531
C         29.45293        48.22999        -0.45549
C         30.68029        50.36269        -0.39908
C         29.46585        51.07258        -0.28518
C         29.39969        52.51522        -0.31447
C         31.96833        16.53040         0.44113
C         33.23130        18.75918         0.60767
C         32.20756        17.85911         0.85482
C         33.06974        20.24591         0.73178
C         31.73199        21.01782         0.59538
C         32.85891        23.15964         1.19742
C         31.66276        22.45307         0.98893
C         33.00037        24.61377         1.30934
C         31.86900        25.53058         1.42138
C         33.10697        27.34728         0.38073
C         31.80014        26.77929         0.89398
C         33.14298        28.87067         0.37045
C         31.89411        29.62864         0.35932
C         33.13751        31.75818         0.58178
C         31.95548        31.01266         0.20859
C         33.04904        33.18886         0.54796
C         31.89874        33.85843         0.04856
C         33.14196        36.00927        -0.00148
C         31.91301        35.28640        -0.07411
C         33.16807        37.46423        -0.08259
C         31.89271        38.16773        -0.06527
C         33.15476        40.34669        -0.18287
C         31.90184        39.61812        -0.20337
C         33.17836        41.70050        -0.41429
C         31.94476        42.37509        -0.85396
C         33.21437        44.65883        -0.75364
C         31.94745        43.90675        -1.01194
C         33.18830        46.05886        -0.85996
C         31.90962        46.77025        -1.20048
C         31.89781        48.23602        -0.81738
C         34.17021        21.03296         1.27230
C         35.37098        23.12621         1.48817
C         34.13389        22.42988         1.30289
C         35.47725        24.52964         1.41360
C         34.23272        25.24165         1.26146
C         35.51792        27.44935         1.45581
C         34.23741        26.72905         1.21043
C         35.62337        28.90025         1.15480
C         34.41106        29.64000         0.71927
C         35.48958        31.78606         1.46502
C         34.28693        31.07373         1.00542
C         35.55367        33.26920         1.27038
C         34.23282        33.98276         0.89620
C         35.61027        35.95281         0.14906
C         34.31067        35.32970         0.34837
C         35.63362        37.43984        -0.15070
C         34.36310        38.15805        -0.04364
C         35.69700        40.28475        -0.23295
C         34.41529        39.63293         0.27548
C         35.66944        41.74532        -0.66651
C         34.43580        42.48714        -0.10312
C         34.38111        43.94841        -0.45671
C         36.70113        25.24318         1.52697
C         37.97450        27.37105         1.67062
C         36.78422        26.67263         1.57221
C         38.00825        28.86255         1.93346
C         36.77464        29.56002         1.41576
C         38.04799        31.75176         1.22683
C         36.79491        31.04080         1.50217
C         38.03688        33.14178         0.95911
C         36.83238        33.87741         0.93990
C         38.11869        35.91380         0.07631
C         36.86447        35.38397         0.80380
C         38.09771        37.43890         0.10700
C         36.93939        38.14808        -0.02117
C         36.86839        39.59516        -0.22977
C         39.25370        29.60801         1.48353
C         40.50892        31.71345         1.08532
C         39.26419        30.97284         1.24825
C         40.52822        33.06487         0.94828
C         39.31509        33.85844         0.81952
C         39.35689        35.20675         0.58267
O         14.07823        27.30675        -1.07770
O         23.81094        27.30644        -2.24182
O         35.68222        36.44699        -1.24242
O         24.98982        46.06043         0.97308
O         27.79288        29.00072        -2.21769
O         30.73092        25.06031         2.08976
O         21.34274        13.99055        -2.30819
O         21.47024        29.28258        -1.81529
O         18.59786        12.25356         0.84497
O         29.17794        22.34105         1.61340
O         32.62322        20.83077        -0.56745
O         27.42587        12.73353        -1.67459
O         16.45899        26.75834         1.81007
O         19.04037        44.01188         2.34301
O         21.31365        31.43300         0.99621
O         19.45943        48.12018         2.67387
O         14.21250        31.64654         1.83787
O         29.15349        31.33852        -2.06028
O         17.40150        35.57868        -2.36478
O         22.72162        58.33684        -1.25802
O         25.75867        24.00702        -2.62523
O         24.85065        56.96584         1.22822
O         18.23170        15.16320        -2.15584
O         31.12720        18.38387         1.60803
O         25.18496        13.98196        -2.30208
O         30.14133        28.48126         1.71194
O         27.54383        35.25122         1.13879
O         23.58439        44.28201        -2.17797
O         25.31199        50.51087         1.56412
O         27.17753        17.18417        -2.37611
O         25.52462        29.29770         0.73061
O         20.31105        18.34450         0.94477
O         21.55740        39.59147        -1.92246
O         34.74617        33.96073         2.29502
O         32.01784        43.01658        -2.17284
O         22.19303        54.88889        -1.16450
O         28.77207        46.56401        -2.09628
O         34.50476        27.28846         2.53459
O         16.24620        40.42829        -2.01511
O         34.05684        29.33613        -0.69501
O         18.98726        38.57918        -2.08630
O          8.76634        29.15604         2.15893
O         17.14194        46.96900         2.88042
O         25.06804         8.09608         1.97852
O         36.08841        31.42661         2.76525
O         13.93036        39.26398        -1.92906
H         14.73219        38.98506        -2.43881
O         23.01370        40.90379         1.15047
H         22.76452        40.14430         1.72816
O         23.16486        28.45278         1.23418
H         24.04713        28.61785         1.64734
O         38.09510        35.51033        -1.31986
H         37.30721        35.93620        -1.74051
O         17.36523        22.19043         1.68673
H         17.41556        23.08102         2.09258
O         16.93822        43.26852        -1.46120
H         16.79230        42.60674        -2.17516
O         29.57035        39.76483         1.65929
H         28.96599        39.10726         2.08215
O         21.27924        45.47744         2.01513
H         20.51957        44.93091         2.39119
O         24.34164        34.14818        -2.39112
H         24.12823        33.28456        -2.80535
O         24.26832        48.34280        -1.87532
H         24.16466        49.29844        -2.07130
O         34.46064        39.72864         1.73054
H         34.56971        40.68979         1.94134
O         28.68289        14.27355         2.13642
H         28.94219        15.20193         2.32247
O         25.82869         9.64708        -1.52355
H         26.48269        10.23408        -1.96363
O         26.69860        51.32666        -1.72068
H         27.02720        50.55720        -2.23186
O         30.96825        46.18771         0.92676
H         30.11933        46.03477         1.39553
O         29.16719        18.67747        -2.28797
H         28.83103        17.85985        -2.73581
O         11.22881        28.57303         2.57414
H         10.34294        28.53490         3.00904
O         23.38473         7.07540        -0.70641
H         22.58899         6.64471        -1.08376
O         10.83315        23.65799        -2.01109
H         11.65482        24.14109        -2.23782
O         16.78541        21.19765        -1.81168
H         17.56382        21.64767        -2.20297
O         25.80750        37.53157        -2.04914
H         24.99884        37.12087        -2.42699
O         27.21312        52.25330         1.78503
H         27.09279        53.11204         2.23973
O         18.13678        32.95042        -2.52963
H         17.98018        33.85474        -2.89934
O         18.93943        27.59708         1.84824
H         18.13642        27.81190         2.37949
O         29.89104        34.10273        -2.37696
H         29.87187        33.21031        -2.79219
O         23.10519         9.66290        -1.84975
H         24.05270         9.53822        -2.10366
O         31.70699        46.69468        -2.64111
H         30.74175        46.70686        -2.82966
O         24.64887        25.17386         0.66857
H         23.88652        25.63906         1.07716
O         16.47827        37.99740        -2.55754
H         17.20398        38.38633        -3.09772
O         24.70474        17.82601         0.76759
H         24.54307        18.66966         1.24067
O          8.41862        36.29017         2.40085
H          8.46432        35.42174         2.85354
O         16.94455        42.75125         2.14901
H         17.70898        43.04274         2.73157
O         21.00828        36.58598        -2.27734
H         20.43528        37.37743        -2.44563
O         27.31174        20.86313        -2.86221
H         27.95334        20.13345        -3.03443
O         24.53179        16.81989        -2.73862
H         24.70115        15.92952        -3.12414
O         10.85332        23.99974         1.64199
H         10.83467        24.76854         2.25083
O         35.65589        41.81760        -2.09583
H         34.78343        41.51024        -2.41910
O         37.98525        29.00471         3.39674
H         37.51740        29.84228         3.61100
O         16.19979        29.20888         2.19151
H         15.42454        28.90507         2.70974
O         33.27892        26.89275        -0.98331
H         33.77970        27.59406        -1.46222
O         29.15494        38.19434        -1.69268
H         29.95474        38.53096        -2.14785
O         23.30687        41.30625        -2.48097
H         23.30733        42.14372        -2.99376
O         25.98140        45.08708        -2.45158
H         25.09946        45.11607        -2.89415
O         14.23599        33.73669        -1.87246
H         14.91535        34.26865        -2.34273
O         23.09473        23.13581        -2.99147
H         23.94168        23.52216        -3.32369
O         34.61527        42.45969         1.36110
H         33.90961        43.01000         1.76312
O         36.88439        35.91518         2.15535
H         36.17665        35.44963         2.66037
O         27.45941        46.50026         1.23793
H         26.64218        46.56869         1.78968
O         19.74921         5.34593         0.84315
H         18.89916         5.77963         0.62581
O          8.01975        37.29697        -1.09549
H          8.81808        36.94821        -1.54325
O         28.23325        37.56002         1.78167
H         27.81433        36.73175         2.12774
O         18.71821        50.50758         3.28288
H         19.29249        49.78068         3.62335
O         21.91446        38.45343         1.58717
H         21.96573        37.59704         2.06157
O         15.95432        20.10713         1.58410
H         15.16970        19.62264         1.91477
O         14.92255        38.61084         1.52985
H         14.93117        37.79623         2.07495
H          5.00748        31.20736         0.13530
H          4.98363        33.67638         0.25050
H          7.53516        26.97078        -0.07835
H          6.24544        29.11368         0.07335
H          6.17149        35.78357         0.61762
H          7.46585        38.00761         0.76063
H          9.99607        22.65436        -0.41657
H          8.69535        24.83831        -0.05145
H          8.65662        40.09127         0.73300
H          9.93175        42.24077         0.95727
H         12.38391        18.39459        -0.67804
H         11.20891        20.56814        -0.74037
H         11.22268        44.35132         1.12931
H         12.50230        46.46951         1.27388
H         14.74910        14.08319        -0.80615
H         13.59033        16.20749        -0.83251
H         13.77885        48.55135         1.33390
H         15.00211        50.64829         1.36791
H         17.24170         9.42805        -0.24049
H         15.87439        11.86966        -1.09114
H         16.18194        52.79822         1.55343
H         17.45578        54.87725         2.01097
H         20.03862         6.36266         2.64603
H         18.40290         7.79790         0.95159
H         18.70482        57.05964         1.97300
H         19.91448        59.27421         1.76853
H         23.05595         2.59169         2.98230
H         20.92435         3.86411         2.70226
H         23.08676        62.71748         0.90702
H         21.04879        61.43145         1.47643
H         25.20737         3.59420         2.24001
H         26.35165         5.22430         0.77800
H         26.40323        59.47853        -0.23559
H         25.16757        61.58479         0.19127
H         28.04430         7.62227         0.58802
H         28.99739         9.78464         1.01169
H         29.02372        55.20365        -0.48882
H         27.70067        57.30001        -0.49551
H         30.05765        11.93341         1.25924
H         31.43921        13.98868         0.83495
H         31.62753        50.91888        -0.46315
H         30.32531        53.07088        -0.53362
H         32.80481        15.88126         0.14158
H         34.13634        18.42217         0.08010
H         34.10226        46.63519        -0.65078
H         32.82175        48.81635        -0.96872
H         35.10294        20.51764         1.54851
H         36.28278        22.52402         1.62074
H         36.60130        42.25961        -0.32130
H         35.30583        44.52041        -0.28089
H         37.63217        24.66704         1.64112
H         38.92324        26.81456         1.72843
H         39.05920        37.97672         0.12556
H         37.80524        40.11846        -0.48127
H         40.21763        29.07914         1.54905
H         41.45323        31.15102         1.13029
H         41.49141        33.59059         0.86536
H         40.33121        35.71333         0.49561
