         720
 CSIRO Nanostructure Databank - Neutral Graphene Oxide Data Set
C         22.89602        27.52458        -1.03969
C         22.98515        28.88672        -1.26795
C         23.20037        31.73194        -2.00556
C         23.17427        33.09462        -2.05941
C         23.08011        36.05883        -1.91602
C         23.12497        37.43374        -2.02468
C         23.26587        40.37176        -2.30268
C         23.32925        41.72924        -2.46395
C         23.34151        44.65563        -2.85340
C         23.22443        45.85514        -2.26964
C         25.14638        24.63707        -0.14864
C         23.99775        25.36767        -0.49762
C         25.32859        27.41391        -0.78345
C         24.06491        26.75575        -0.78569
C         25.40763        28.81986        -0.91858
C         24.22422        29.56532        -1.20246
C         25.48034        31.69332        -1.13634
C         24.32792        31.00499        -1.44430
C         25.61824        33.15092        -1.51651
C         24.29625        33.89364        -1.63757
C         25.34933        36.11684        -0.96413
C         24.23616        35.27777        -1.56591
C         25.57165        37.37132        -1.78383
C         24.34816        38.17686        -1.98056
C         25.73915        40.24974        -2.11810
C         24.44507        39.57278        -2.14448
C         25.76102        41.69566        -2.28998
C         24.58740        42.40850        -2.49399
C         25.86128        44.65012        -2.41342
C         24.61519        43.87850        -2.74984
C         25.69260        46.15077        -2.10866
C         24.32574        46.32698        -1.34195
C         25.23367        48.42578        -0.38065
C         24.19409        47.77300        -0.92097
C         27.75780        23.02195        -0.31796
C         27.59247        24.36820         0.34168
C         26.41810        25.19119        -0.19324
C         27.83774        27.36036        -0.37716
C         26.54184        26.59800        -0.61547
C         27.78724        28.83602        -0.30917
C         26.64924        29.52364        -0.63719
C         28.00654        31.67328        -0.70876
C         26.62596        31.02798        -0.40386
C         27.97669        33.17214        -0.49863
C         26.66587        33.85763        -0.68046
C         27.89658        36.08897        -0.50088
C         26.61281        35.35143        -0.60084
C         28.00758        37.36520        -0.97645
C         26.90729        38.05679        -1.72514
C         28.25070        40.17532        -1.99004
C         26.92173        39.52838        -1.91429
C         28.33888        41.66120        -2.21448
C         27.06127        42.43130        -2.33092
C         28.17465        44.53148        -1.50750
C         27.06295        43.89056        -2.00413
C         28.10145        45.93192        -1.07491
C         26.91036        46.84867        -1.38383
C         27.73889        48.48273         0.39740
C         26.50152        47.65710        -0.09694
C         27.81457        49.96468         0.55895
C         30.20060        23.04314         0.01866
C         28.94332        22.37759        -0.30054
C         30.21044        24.39892         0.24545
C         28.92594        25.13937         0.42339
C         30.28335        27.32866         0.19826
C         28.97948        26.62432         0.25746
C         30.20851        28.75183         0.55864
C         28.95137        29.54627         0.28479
C         30.24420        31.68809         0.49647
C         29.10628        31.00613         0.10759
C         30.29500        33.13445         0.29732
C         29.06680        33.85439        -0.03290
C         30.37163        36.00279         0.08278
C         29.01197        35.35760         0.25390
C         30.43250        37.45211        -0.12674
C         29.22073        38.16516        -0.67179
C         30.63494        40.24298        -1.00209
C         29.43518        39.46450        -1.39437
C         30.69129        41.61816        -1.12159
C         29.65024        42.40605        -1.90980
C         30.55465        44.46309        -0.91514
C         29.43824        43.80531        -1.33370
C         30.55552        45.94486        -0.69740
C         29.18334        46.52512        -0.48279
C         30.29783        48.53508         0.70512
C         29.07185        47.83667         0.20607
C         30.20026        49.88189         1.34648
C         28.94033        50.59572         0.96538
C         32.70892        20.23320         0.62319
C         31.52012        20.86115         0.33821
C         32.71604        23.01418         0.34440
C         31.49144        22.25846        -0.23356
C         32.73975        24.44441        -0.14157
C         31.45076        25.19027        -0.03903
C         32.73197        27.41256         0.19108
C         31.48146        26.66900         0.13699
C         32.75465        28.78495         0.48161
C         31.48739        29.47220         0.84742
C         32.81034        31.70237         1.25854
C         31.45772        30.97214         1.03841
C         32.69252        33.17676         0.91169
C         31.48943        33.83571         0.49157
C         32.79937        35.99716         0.43255
C         31.53547        35.29076         0.32837
C         32.87534        37.40062         0.14833
C         31.73937        38.09742        -0.22348
C         33.03161        40.22102        -0.18603
C         31.90705        39.45834        -0.82646
C         33.02064        41.63105        -0.22662
C         31.87519        42.32116        -0.73340
C         33.02728        44.55608        -0.24012
C         31.86808        43.78973        -0.82249
C         32.86724        45.94223         0.28488
C         31.58888        46.43922         0.28969
C         33.10281        48.67780         1.74742
C         31.29263        47.64644         1.00457
C         32.86342        50.04086         1.83386
C         31.49084        50.64434         1.83194
C         32.68808        52.86458         1.84829
C         31.56185        52.13267         1.72455
C         35.31790        18.68988         0.68649
C         35.22151        20.15581         0.73910
C         33.98964        20.85607         0.53421
C         35.22279        23.10565         0.56353
C         34.04798        22.29234         0.03652
C         35.24741        24.46472         0.42232
C         34.04802        25.18380        -0.09539
C         35.26283        27.40308         0.26488
C         34.00783        26.68245        -0.00658
C         35.17792        28.83621        -0.04715
C         33.94665        29.58131         0.33114
C         35.28005        31.64691         0.37833
C         34.02621        30.96246         0.59262
C         35.59163        32.90517         0.92439
C         33.77264        33.96775         1.23891
C         35.27924        35.92453         0.75526
C         33.96891        35.31691         0.80988
C         35.30571        37.36865         0.65182
C         34.13070        38.08771         0.35828
C         35.32749        40.22100         0.73772
C         34.15838        39.51838         0.30699
C         35.32468        41.65887         0.72530
C         34.16013        42.33115         0.29374
C         35.36209        44.55016         0.82170
C         34.07870        43.77005         0.45819
C         35.40694        45.94406         0.40287
C         34.15222        46.80464         0.26978
C         35.39203        48.90274         1.11874
C         34.26778        48.08818         1.14063
C         35.39196        50.14258         1.90194
C         34.06287        50.83099         2.15448
C         35.30161        53.03774         1.90131
C         34.00874        52.33586         2.38339
C         35.30615        54.36992         1.59126
C         37.69609        18.73711         1.42541
C         36.46447        18.01321         0.91861
C         37.69276        20.14152         0.85337
C         36.40443        20.87793         0.90239
C         37.73471        23.09546         1.07477
C         36.41626        22.35191         1.00247
C         37.78658        24.59021         0.88699
C         36.46150        25.29072         0.68185
C         37.74203        27.38240         0.14398
C         36.49065        26.72581         0.28098
C         37.76177        28.88815         0.12074
C         36.45527        29.52369        -0.31906
C         37.72854        31.76446        -0.51356
C         36.42703        31.02141        -0.34215
C         37.77093        33.27823        -0.33859
C         36.60320        33.78339         0.48873
C         37.77001        35.92491         0.40614
C         36.49678        35.18827         0.62854
C         37.79298        37.39208         0.70427
C         36.51115        38.09553         0.88962
C         37.74244        40.19452         1.46101
C         36.50506        39.48482         1.04470
C         37.78211        41.67989         1.31048
C         36.54362        42.39465         0.94311
C         37.87830        44.46915         0.76350
C         36.60876        43.77964         0.83605
C         37.89649        45.83465         0.43413
C         36.64563        46.43016         0.06381
C         37.86071        48.87006         1.14920
C         36.67783        48.56750         0.53862
C         37.96216        50.17952         1.89930
C         36.64142        50.93923         1.88406
C         37.92126        52.95756         2.22276
C         36.58061        52.29728         1.96832
C         37.58182        54.64528         0.58231
C         36.50961        55.12649         1.29288
C         40.29116        15.97526         1.83872
C         39.08072        16.64136         1.69708
C         40.26358        18.67651         1.11668
C         39.03479        18.00257         1.33811
C         40.27408        20.10685         0.71339
C         38.97869        20.87285         0.70890
C         40.30194        23.09740         0.76651
C         39.03153        22.34544         0.97982
C         40.25910        24.53703         0.38596
C         39.02434        25.25453         0.41721
C         40.19485        27.32443        -0.25993
C         38.99372        26.66308         0.09381
C         40.22253        28.75673        -0.64492
C         38.93786        29.53462        -0.60429
C         40.21917        31.66388        -0.27939
C         39.01011        31.01653        -0.48380
C         40.24266        33.06167         0.11372
C         39.07569        33.81390         0.20368
C         40.26562        35.94033         0.62864
C         39.06796        35.20723         0.50130
C         40.32938        37.33255         0.88118
C         39.05861        38.00273         1.19860
C         40.32866        40.20584         1.49815
C         39.05061        39.45972         1.53902
C         40.30575        41.60660         1.40202
C         39.09048        42.36160         1.17543
C         40.35078        44.52396         1.21140
C         39.10237        43.72732         0.93091
C         40.47125        45.93838         0.60527
C         39.13335        46.67197         0.45938
C         40.39412        48.82805         1.21708
C         39.12399        48.15585         0.80518
C         40.36580        50.24335         1.21651
C         39.03729        50.95351         1.07582
C         40.19819        53.12821         1.03220
C         39.08924        52.41467         1.44496
C         40.14310        54.57493         0.76978
C         38.91271        55.29381         0.64228
C         40.14019        57.38858         0.46226
C         38.93985        56.69688         0.53776
C         42.77063        15.98100         1.82821
C         41.51804        16.64371         1.61323
C         42.81020        18.64907         0.76289
C         41.50176        18.00841         1.22096
C         42.84212        20.15592         0.91218
C         41.56488        20.85945         0.67061
C         42.74490        23.01175         0.58075
C         41.57223        22.33751         0.61712
C         42.70970        24.38108         0.01560
C         41.43995        25.13459        -0.03674
C         42.71815        27.28796        -0.41536
C         41.41624        26.52128        -0.64382
C         42.74356        28.78199        -0.49458
C         41.47585        29.54332        -0.59216
C         42.73422        31.65592        -0.26772
C         41.48754        30.92609        -0.37759
C         42.78242        33.03894         0.02537
C         41.52601        33.71883         0.40374
C         42.70576        36.02823         0.09767
C         41.54434        35.20612         0.61168
C         42.78626        37.39150         0.77513
C         41.56070        38.04955         1.04952
C         42.80716        40.13794         1.51690
C         41.56216        39.46157         1.42767
C         42.85884        41.58966         1.78244
C         41.54792        42.36432         1.61088
C         42.79661        44.53384         1.59481
C         41.66542        43.73993         0.95441
C         42.40686        45.75985         2.17861
C         41.49509        46.66005         1.48317
C         42.85143        48.82511         1.58732
C         41.58405        48.07686         1.50143
C         42.80796        50.35864         1.69776
C         41.52780        51.01452         1.27072
C         42.68243        53.11319         0.74510
C         41.48691        52.41657         0.96854
C         42.60212        54.50018         0.16662
C         41.35267        55.26845         0.54073
C         42.59862        57.38116         0.19853
C         41.35366        56.67494         0.39115
C         43.97854        16.66225         1.74242
C         45.29306        18.74043         1.29804
C         44.05419        18.00333         1.32876
C         45.29526        20.14936         1.04680
C         44.02246        20.84819         0.94297
C         45.31081        22.99465         0.55090
C         44.03133        22.35805         1.04904
C         45.26817        24.50952         0.43956
C         44.00737        25.06005        -0.23565
C         45.27215        27.26983        -0.76121
C         43.98854        26.51774        -0.65004
C         45.30561        28.78076        -0.88893
C         43.99800        29.51710        -0.88296
C         45.31091        31.71923        -0.53822
C         43.99440        31.00645        -0.69949
C         45.26861        33.00872         0.26477
C         43.98574        33.77406         0.04239
C         45.33354        35.98035         0.31963
C         44.01077        35.24217         0.02000
C         45.26740        37.36122         0.81968
C         44.04095        38.04820         0.94206
C         45.24643        40.21725         1.16123
C         44.03549        39.47290         1.26283
C         45.25352        41.66424         1.21130
C         44.09293        42.34664         1.56825
C         45.31769        44.52595         1.30200
C         44.11178        43.82001         1.94902
C         45.23566        45.99895         1.10465
C         44.63742        46.93606         2.10881
C         45.31984        48.95375         1.18135
C         44.09800        48.23371         1.53733
C         45.32212        50.42850         1.33820
C         44.03004        51.10864         1.20745
C         45.19167        53.20317         0.54211
C         43.96315        52.45444         0.85226
C         45.10233        54.62573         0.22166
C         43.88321        55.29440         0.25257
C         43.79386        56.72482         0.14868
C         47.72521        18.84507         1.54127
C         46.54312        18.11862         1.55017
C         47.74614        20.22009         1.23863
C         46.51801        20.87378         0.97816
C         47.79456        22.98674         0.50528
C         46.49864        22.30722         0.65135
C         47.75535        24.46147         0.27760
C         46.49700        25.05164        -0.31361
C         47.77882        27.33537        -0.31156
C         46.49445        26.57629        -0.25494
C         47.77505        28.78409        -0.56389
C         46.57554        29.50973        -0.61653
C         47.75613        31.60876        -0.11866
C         46.58089        30.94048        -0.45697
C         47.78238        33.02774         0.18057
C         46.54774        33.80739         0.22410
C         47.76013        35.83218         1.10259
C         46.56347        35.16206         0.46537
C         47.78733        37.35159         0.93897
C         46.51552        38.05207         1.36960
C         47.65780        40.25813         0.78832
C         46.49017        39.53643         1.02720
C         47.66369        41.69199         0.67112
C         46.47285        42.38713         0.92295
C         47.48845        44.48206        -0.02233
C         46.40804        43.84179         0.84125
C         47.54401        46.02578        -0.02145
C         46.33160        46.79360         0.42362
C         47.78567        48.93621         0.87694
C         46.43317        48.25616         0.76802
C         47.74917        50.40956         0.54580
C         46.58752        51.18686         0.99807
C         47.67325        53.32639         0.24982
C         46.43631        52.60001         0.60571
C         47.52372        54.71974        -0.19090
C         46.32043        55.32973        -0.13461
C         50.29775        20.29127         0.91819
C         49.04439        20.99834         1.38976
C         50.28751        23.18068         0.87038
C         48.98236        22.38631         0.80754
C         50.23688        24.32979        -0.13860
C         49.03166        25.20458         0.07519
C         50.19957        27.22501        -0.83458
C         49.03938        26.59552        -0.42736
C         50.22158        28.70574        -0.82701
C         49.04206        29.42484        -0.50099
C         50.30179        31.54132         0.08233
C         48.99638        30.78173         0.18836
C         50.24659        33.02494         0.05885
C         48.99725        33.69050         0.33363
C         50.04029        35.91025        -0.12971
C         49.11588        35.13235         0.79764
C         50.08290        37.40187         0.02744
C         48.92466        38.05732         0.69980
C         50.22444        40.29799         0.58820
C         48.95028        39.54000         0.83212
C         50.13628        41.73002         0.17665
C         48.90129        42.41433         0.33611
C         50.05184        44.52435        -0.12732
C         48.85920        43.82046         0.14645
C         50.14194        46.00802         0.16433
C         48.84577        46.75429        -0.05262
C         50.08248        48.89021        -0.14062
C         48.91107        48.21464         0.19808
C         50.07187        50.32020        -0.23347
C         48.87477        51.03736         0.02192
C         49.88904        53.05323        -1.09699
C         48.90006        52.52547        -0.12069
C         51.46760        20.96235         0.67682
C         52.76399        23.11105         0.41539
C         51.55636        22.38631         0.62918
C         52.74238        24.49668        -0.03541
C         51.49978        25.12904        -0.25574
C         52.64037        26.86127        -1.40907
C         51.42951        26.40856        -0.83928
C         52.62606        28.99683        -1.55192
C         51.44849        29.44828        -0.94585
C         52.65686        31.63195        -0.95067
C         51.50987        30.83263        -0.43329
C         52.60044        33.10146        -0.78351
C         51.37125        33.74507        -0.25793
C         52.57832        35.97606        -0.69772
C         51.29444        35.19485        -0.51357
C         52.54249        37.42618        -0.42145
C         51.38602        38.08514        -0.07710
C         52.51553        40.19502        -0.51718
C         51.53585        39.52367         0.41639
C         52.42742        41.63398        -0.85787
C         51.26311        42.41684        -0.34404
C         52.41754        44.56107        -0.97909
C         51.23609        43.82217        -0.44061
C         52.52222        46.03472        -0.78762
C         51.32551        46.75673        -0.41907
C         52.58508        48.92011        -0.49024
C         51.29406        48.13567        -0.45078
C         52.42389        50.27719        -1.19461
C         51.32196        51.12098        -0.53500
C         50.99858        52.34967        -1.35578
C         55.21254        23.27390         0.51246
C         54.04554        22.53340         0.63614
C         55.21319        24.60617         0.03306
C         53.96156        25.20178        -0.31815
C         55.13393        27.12522        -1.68335
C         53.91020        26.43189        -1.05028
C         55.14856        28.77330        -1.60343
C         53.93992        29.52986        -1.39705
C         55.09712        31.71255        -1.32065
C         53.97391        30.95920        -1.14071
C         55.05708        33.22046        -1.34408
C         53.91792        33.77851        -0.49770
C         55.06405        35.95569        -0.50194
C         53.87721        35.28077        -0.58487
C         55.06210        37.40859        -0.45304
C         53.83173        38.11591        -0.46509
C         55.04257        40.24052        -0.55668
C         53.83700        39.51521        -0.54831
C         55.01104        41.68959        -0.74274
C         53.73263        42.26636        -1.37462
C         54.96616        44.52148        -1.46243
C         53.65343        43.79386        -1.38197
C         54.94420        46.01770        -1.47445
C         53.68675        46.72244        -1.14674
C         54.95691        48.84975        -1.21349
C         53.76810        48.14931        -1.03329
C         54.91515        50.30855        -1.21271
C         53.75484        50.99634        -1.21597
C         57.69018        24.90651         0.25300
C         56.42534        25.34759        -0.24047
C         57.63104        26.92808        -1.56311
C         56.39502        26.47639        -1.10819
C         57.61234        29.00910        -2.06144
C         56.32673        29.54819        -1.75856
C         57.59290        31.75939        -1.39793
C         56.32751        31.07256        -1.87135
C         57.57370        33.11651        -0.99270
C         56.35408        33.85783        -0.89930
C         57.55430        35.92492        -0.38201
C         56.34026        35.22529        -0.55720
C         57.53969        37.38238         0.04527
C         56.27119        38.12299        -0.33145
C         57.51619        40.27120        -0.16313
C         56.25613        39.52797        -0.35394
C         57.47275        41.77975        -0.37432
C         56.17452        42.41045        -0.71714
C         57.46429        44.58146        -1.11921
C         56.15963        43.91795        -0.74023
C         57.44774        45.99695        -1.30615
C         56.22490        46.73928        -1.29634
C         57.47804        48.82219        -1.43531
C         56.22838        48.14143        -1.33120
C         58.87775        25.54945        -0.04952
C         60.03207        27.44406        -1.24997
C         58.88453        26.63050        -0.97165
C         60.01000        28.77951        -1.64380
C         58.85189        29.59914        -1.77986
C         60.05994        31.73519        -1.01591
C         58.91394        31.12580        -1.77174
C         60.00952        33.02185        -0.59342
C         58.80233        33.80906        -0.68671
C         60.00427        35.98613        -0.41956
C         58.78808        35.21958        -0.46405
C         59.99855        37.36883        -0.42343
C         58.80699        38.13027        -0.31824
C         59.94829        40.33034        -0.55884
C         58.79694        39.54970        -0.35161
C         59.90441        41.72202        -0.75426
C         58.72285        42.46420        -0.76319
C         59.89403        44.60195        -1.35046
C         58.68431        43.87899        -1.09817
C         59.89394        45.96766        -1.50356
C         58.67868        46.70433        -1.45125
C         58.66162        48.12309        -1.52777
O         38.99769        38.43595         2.59936
O         27.84261        42.05956        -3.53697
O         34.21839        25.96573        -1.30953
O         37.01074        22.75384         2.29324
O         26.26411        34.49998         0.56251
O         35.72393        28.99472        -1.44935
O         45.02440        46.92695         3.26740
O         30.53910        50.04998         2.76296
O         28.82061        26.03949         1.59929
O         34.79358        50.12019         3.23873
O         52.36717        32.50475        -2.10379
O         52.53829        27.86625        -2.37911
O         38.11929        53.67775         3.19443
O         36.83460        31.48130        -1.67086
O         44.62088        29.15222        -2.13942
O         37.58905        41.04528         2.64551
O         32.00093        24.72849        -1.35821
O         41.70315        34.33404         1.75786
O         48.38756        25.14501         1.40502
O         37.08364        25.22635         2.01260
O         45.08195        46.46364        -0.26867
O         44.82667        35.80882        -1.06923
O         42.10198        42.15015         2.93707
O         34.35379        44.22262         1.81722
O         44.66282        26.65401        -1.94056
O         48.11251        46.48345        -1.30478
O         57.51117        41.19397         0.97972
O         53.90175        41.89153        -2.75994
O         55.10891        45.20032        -2.72442
O         39.35938        28.98534        -1.86324
O         42.81558        28.05966         0.81487
O         37.83345        36.91664        -0.68588
O         40.94271        20.31929        -0.58779
O         46.20631        50.91198         2.42253
O         34.81209        33.39748         1.97346
O         44.63869        31.73668        -1.81647
O         27.54837        26.81482        -1.70086
O         49.74481        40.07576         1.96653
O         47.44134        35.59848         2.47762
O         52.70060        44.22179        -2.38917
O         39.83945        22.73389         2.13794
O         29.47055        38.25123         0.76901
O         32.95001        44.37170        -1.68674
O         39.21702        47.68268        -0.60680
O         51.30843        31.00379         1.02287
O         25.54564        44.30228        -3.81969
O         57.64347        27.75663        -2.68887
O         51.78221        35.52931        -1.84920
O         29.22011        29.00564         1.61632
O         43.45459        24.25822        -1.31156
O         47.00437        27.12390         0.96882
O         31.32408        30.06497         2.18155
O         29.19301        39.39875        -2.83258
O         28.30598        47.74265         1.52955
O         48.82707        53.17904         1.19072
O         26.46728        37.28174        -2.91833
O         38.24479        20.42611        -0.48441
O         36.68997        47.68867        -0.55817
O         32.08595        47.82268         2.13308
O         49.53821        36.72931        -1.20087
O         46.42419        37.97291         2.81553
H         46.76326        37.04880         3.03565
O         24.25746        45.42078        -0.22598
H         24.80137        45.79445         0.51226
O         49.83594        35.08601         2.05172
H         49.09655        35.16742         2.72821
O         26.40736        31.24671         1.01401
H         25.53632        30.87191         1.25942
O         32.34532        39.18849        -2.22512
H         32.23958        40.02008        -2.73734
O         52.92821        49.14143         0.91079
H         52.51285        49.99035         1.20311
O         38.43237        49.98351         3.23832
H         38.40046        50.83901         3.71549
O         42.86635        18.39548        -0.68694
H         42.14549        18.94494        -1.08606
O         26.18121        46.71895         0.95325
H         26.94950        46.70676         1.58206
O         44.04226        22.66149         2.50626
H         44.75910        22.12643         2.91211
O         54.24477        33.43560         0.88013
H         53.53374        33.76965         1.46722
O         52.19127        39.47721         1.70381
H         51.47685        39.43241         2.38359
O         55.09148        26.83693        -3.09078
H         54.23125        27.16970        -3.43044
O         27.22428        24.04399         1.71501
H         27.52315        24.80068         2.27239
O         34.09762        47.30910        -1.09441
H         35.00477        47.62404        -1.32913
O         37.66785        33.87985        -1.65366
H         37.15186        33.25523        -2.21577
O         37.41401        53.60218        -0.28246
H         38.26721        53.30798        -0.66243
O         28.71379        35.51186         1.67217
H         28.76070        36.47538         1.86788
O         49.21709        21.18384         2.83841
H         49.81554        21.96329         2.95717
O         42.84754        50.56088         3.16206
H         43.71227        50.22780         3.48820
O         41.85464        43.42073        -0.43019
H         41.83075        44.26432        -0.94270
O         32.56872        23.10329         1.77695
H         32.58311        22.19597         2.14999
O         54.85543        33.63488        -2.71551
H         55.43541        33.07027        -3.27987
O         40.23651        44.75398         2.64467
H         40.18281        43.88677         3.10208
O         45.17419        32.54299         1.65785
H         45.50025        33.25711         2.24846
O         44.27956        43.87134         3.40509
H         43.64275        43.21379         3.77414
O         33.95026        52.55826         3.81495
H         34.42179        51.80499         4.23938
O         37.49155        18.95902         2.85736
H         37.42844        18.08485         3.29598
O         46.46323        24.62366        -1.68170
H         45.66635        25.02323        -2.11315
O         37.93462        29.32600         1.51447
H         37.74963        28.57135         2.11365
O         47.09188        44.10037        -1.36977
H         47.50152        44.75307        -1.98375
O         48.83228        30.42940         1.59664
H         49.73758        30.27351         1.95413
O         27.45472        47.84569        -2.26863
H         26.95761        47.76878        -3.12230
O         51.84034        51.59990         0.74555
H         51.12252        52.09993         1.19359
O         50.41187        23.68185         2.22898
H         49.65095        24.30279         2.37242
O         55.91221        44.29133         0.66509
H         56.56208        43.80987         1.22234
O         34.25045        22.22421        -1.39453
H         33.39931        21.91120        -1.79729
O         57.52295        37.34971         1.51922
H         58.35827        36.92854         1.81386
O         59.11539        31.49164        -3.18930
H         58.24192        31.38166        -3.63759
O         48.09692        48.85987         2.32267
H         47.50356        49.51452         2.76969
O         25.50832        46.81388        -3.37546
H         25.43585        46.10029        -4.05927
O         24.82492        36.62813         0.29579
H         24.91270        35.89970         0.95294
O         42.32156        36.33695        -1.27333
H         43.15602        36.51015        -1.76992
O         42.43117        54.27565        -1.29528
H         42.41934        55.16023        -1.72061
O         51.99758        50.06266        -2.55924
H         52.67817        49.51926        -3.00956
O         31.61649        22.12654        -1.67850
H         31.59276        23.04942        -2.03997
O         56.29647        31.31968        -3.36081
H         55.57703        30.76091        -3.73054
O         33.11874        31.66083         2.66750
H         32.65408        30.87263         3.04034
O         41.35304        26.37654        -2.09839
H         40.51371        25.92855        -2.33334
O         51.95284        40.58478        -1.80339
H         53.18439        41.24935        -2.98030
O         38.64477        50.94996        -0.33075
H         38.81178        50.05506        -0.70092
O         50.33760        46.06463         1.61624
H         51.29178        45.95252         1.81081
O         26.19317        33.17262        -2.86747
H         25.63047        32.61253        -3.44316
O         50.06236        23.68361        -1.43484
H         50.03545        24.37419        -2.13004
O         42.78870        46.12936         3.40657
H         43.42074        45.45343         3.76824
O         31.01169        46.52326        -1.96792
H         31.85428        46.06412        -2.20305
O         28.27666        31.38974        -2.10964
H         28.93848        32.03180        -2.44031
O         30.31403        42.61027        -3.18479
H         29.60301        42.67279        -3.86654
O         45.29872        25.04220         1.77743
H         44.77268        24.43879         2.35722
O         41.02106        45.85851        -0.73067
H         40.71427        46.66666        -1.20842
H         21.91727        27.02485        -1.05553
H         22.06253        29.44879        -1.46474
H         22.31890        31.17166        -2.34387
H         22.25733        33.59350        -2.40290
H         22.12413        35.55410        -2.11610
H         22.18691        37.95884        -2.25359
H         22.28161        39.88563        -2.29442
H         22.40404        42.30881        -2.58308
H         22.55087        44.26740        -3.51421
H         22.31478        46.46208        -2.39560
H         25.03278        23.59098         0.17008
H         23.01686        24.87213        -0.48861
H         25.14764        49.48431        -0.09188
H         23.24220        48.29522        -1.10763
H         26.85188        22.50248        -0.66314
H         26.92422        50.56540         0.31720
H         29.00693        21.34908        -0.68569
H         28.90445        51.68927         1.08969
H         32.66896        19.19344         0.98427
H         30.57722        20.30934         0.46345
H         32.60203        53.95504         1.71979
H         30.63230        52.66393         1.46461
H         34.42132        18.13149         0.37854
H         34.36993        54.94476         1.68736
H         36.47885        16.91701         0.82089
H         36.63899        56.07056         1.84309
H         40.30258        14.91656         2.13470
H         38.14324        16.09705         1.88403
H         40.14763        58.48449         0.38177
H         37.99011        57.24693         0.48185
H         42.76129        14.92826         2.14475
H         42.56932        58.47829         0.13689
H         44.89385        16.12865         2.03596
H         44.71331        57.32173         0.08430
H         48.66480        18.32813         1.78055
H         46.58914        17.04214         1.76252
H         48.42242        55.28411        -0.47466
H         46.25560        56.38475        -0.43078
H         50.30956        19.19145         0.89137
H         49.67089        53.98693        -1.63645
H         52.36728        20.37488         0.43405
H         51.72223        52.69476        -2.10850
H         56.16818        22.78477         0.74740
H         54.11352        21.49188         0.98091
H         55.86117        50.86546        -1.26031
H         53.76352        52.09360        -1.29501
H         57.71698        24.05733         0.94949
H         57.50684        49.91901        -1.47373
H         59.81494        25.23075         0.42850
H         61.01332        27.02610        -0.97428
H         60.98696        29.28749        -1.66187
H         60.99301        31.16473        -0.90528
H         60.89897        33.46758        -0.12402
H         60.96872        35.46616        -0.49647
H         60.96275        37.88799        -0.52142
H         60.92932        39.84137        -0.63467
H         60.85873        42.21965        -0.97339
H         60.85244        44.06763        -1.38018
H         60.84113        46.50636        -1.65018
H         59.61312        48.66234        -1.64064
