         252
 CSIRO Nanostructure Databank - Neutral Graphene Oxide Data Set
C         30.61225        32.14418         1.22268
C         30.52668        33.17972         0.54728
C         30.59964        36.02746        -1.13030
C         30.43625        37.25457        -1.25908
C         30.43130        40.79669        -0.85698
C         30.43563        42.04660        -0.84507
C         33.00841        29.43079         1.89966
C         31.81884        29.89687         1.79479
C         33.02595        31.95211         0.88882
C         31.63512        31.36433         1.93539
C         32.88762        33.11474        -0.02668
C         31.49448        33.57396        -0.53997
C         32.80412        35.47447        -1.48721
C         31.57701        34.98757        -1.04868
C         32.80660        37.70470        -1.40443
C         31.47370        38.28261        -0.99816
C         32.89719        40.32334        -1.11625
C         31.45359        39.76537        -0.72865
C         33.11853        41.80562        -1.08161
C         31.28741        43.09363        -1.26405
C         33.02865        44.55912        -0.70963
C         31.78309        44.25781        -0.65709
C         35.70697        27.74559         1.74636
C         35.56217        29.22989         2.01371
C         34.27323        29.79558         1.48312
C         35.42610        31.75320         0.30806
C         34.16315        30.94558         0.49348
C         35.37585        32.95860        -0.33186
C         34.09233        33.49603        -0.90785
C         35.24216        35.82692        -0.90581
C         34.11227        35.01390        -1.09262
C         35.25495        37.32044        -0.82410
C         34.00999        38.09688        -0.89022
C         35.16166        40.14580         0.14907
C         33.94713        39.49006        -0.37585
C         35.12812        41.63590         0.35257
C         34.11307        42.45388        -0.38036
C         35.43993        44.50901         0.07033
C         34.22510        43.91343        -0.31995
C         35.96426        45.75555        -0.41685
C         37.97676        26.92290         1.47701
C         36.53785        26.84873         1.57895
C         38.03499        29.20961         1.33626
C         36.80980        29.83364         1.33401
C         37.81409        31.56954        -0.22368
C         36.75819        31.27261         0.83495
C         37.83240        32.97351        -0.85039
C         36.56851        33.75675        -0.57331
C         37.82669        35.86717        -0.96291
C         36.51792        35.12315        -0.72598
C         37.75000        37.37063        -0.64569
C         36.41850        38.00741        -0.47832
C         37.61644        39.93384         0.79618
C         36.50176        39.52761        -0.23206
C         37.62503        41.45296         1.13406
C         36.37594        42.27372         0.86475
C         37.59070        44.38015         1.26109
C         36.50355        43.74400         0.67166
C         38.39236        46.05879        -0.89309
C         36.92614        46.39208        -0.86875
C         40.22279        24.47795        -0.15119
C         39.18787        25.05879         0.25698
C         40.18162        27.22445         0.11682
C         38.96229        26.38974         0.70090
C         40.28779        28.73331         0.35794
C         39.20974        29.58061         0.57624
C         40.35172        31.45541        -0.81892
C         39.10349        30.82544        -0.22364
C         40.37651        32.99548        -0.59251
C         39.06866        33.69800        -0.33924
C         40.30160        35.93557        -0.14816
C         39.02345        35.18550        -0.25940
C         40.27191        37.30528        -0.12221
C         39.00975        38.08482        -0.23404
C         40.18496        40.12669         0.60020
C         38.99900        39.44866         0.38310
C         40.23473        41.55394         1.00406
C         38.92516        42.19469         1.35299
C         40.15350        44.52550         1.46761
C         38.88394        43.70569         1.49136
C         40.09738        46.00963         1.10082
C         39.21992        46.68030         0.18095
C         40.15391        48.76648         1.00326
C         39.30127        48.07091         0.37259
C         42.84668        24.54156        -0.07638
C         41.53253        25.07088         0.03681
C         42.71152        27.22618         0.50578
C         41.50339        26.47520         0.26796
C         42.77484        28.61345         0.21346
C         41.56186        29.35626        -0.02217
C         42.84846        31.43040        -0.42436
C         41.59798        30.72260        -0.34515
C         42.87112        32.84530        -0.28071
C         41.65311        33.72986        -0.34593
C         42.74231        36.00812        -0.49213
C         41.61551        35.20311         0.16416
C         42.71950        37.51555        -0.66580
C         41.47537        38.12298        -0.06839
C         42.72997        40.25346         0.18295
C         41.45073        39.44625         0.28844
C         42.73578        41.54052         1.01471
C         41.40142        42.28466         1.00099
C         42.76698        44.46640         1.08371
C         41.51731        43.71027         1.56829
C         42.94124        45.71118         1.68250
C         40.97435        46.79105         1.88445
C         42.46819        48.62208         2.23433
C         41.14650        48.21524         1.82999
C         43.85932        25.15325         0.37490
C         44.88797        26.90487         1.83363
C         43.93590        26.47626         0.86029
C         45.24970        28.61421        -0.64723
C         44.12146        29.32074         0.12425
C         45.32709        31.38589        -0.67429
C         44.08636        30.72911        -0.42323
C         45.33299        32.79756        -0.60236
C         44.15105        33.37052        -0.12983
C         45.21814        36.09236        -1.07761
C         44.00051        35.51824        -0.40524
C         45.30464        37.40958        -0.32866
C         44.00643        38.05288         0.01517
C         45.25582        40.26242         0.10893
C         44.02598        39.47518         0.54829
C         45.19772        41.66145         0.21283
C         43.95486        42.33372         0.55319
C         45.03136        44.43805         0.01436
C         43.88210        43.72492         0.49433
C         45.04010        46.60884         0.72717
C         43.98171        46.73061         1.62498
C         43.50830        47.93746         2.25147
C         47.14777        27.46272         0.83473
C         46.27218        26.92773         1.51868
C         47.66962        28.46880        -0.04114
C         46.60084        29.30863        -0.55332
C         47.82368        31.55738        -0.70943
C         46.62367        30.70632        -0.72584
C         47.82292        32.99969        -0.65588
C         46.52115        33.66416        -0.86327
C         47.76295        35.93296        -0.75211
C         46.49054        35.19910        -0.99963
C         47.71819        37.42920        -0.80717
C         46.52846        38.19573        -0.42070
C         47.72080        40.35424        -0.30411
C         46.48544        39.58391        -0.22363
C         47.65125        41.79487        -0.21197
C         46.41852        42.43090        -0.01571
C         47.53719        44.67791        -0.02982
C         46.31090        43.88124        -0.07937
C         47.29210        46.02437         0.35405
C         46.44465        46.81858         0.82489
C         50.20263        28.72550         0.48163
C         49.00311        28.78074        -0.28145
C         50.28468        31.62792        -0.42277
C         49.08922        30.95044        -0.80229
C         50.26306        33.05870        -0.50636
C         49.02904        33.76524        -0.66088
C         50.20726        36.03523        -0.45083
C         48.98885        35.25599        -0.67802
C         50.20408        37.43653        -0.26104
C         49.02092        38.22518        -0.64910
C         50.22665        40.38240        -0.27166
C         48.93607        39.66851        -0.37231
C         50.23975        41.89305        -0.33306
C         48.87810        42.61318        -0.64041
C         50.04044        44.53034         0.24439
C         48.77532        44.05483        -0.09938
C         51.17780        29.51980         0.32639
C         52.51840        31.75663         0.32896
C         51.43818        30.87136         0.07896
C         52.63541        32.96530         0.04238
C         51.55601        33.79648        -0.48698
C         52.56915        36.11402         0.20644
C         51.51825        35.31635        -0.42239
C         52.37730        37.27810         0.60331
C         51.32605        38.18422         0.27620
C         52.36714        40.47302         0.70301
C         51.35757        39.58694         0.31704
C         52.40136        41.74137         0.74363
C         51.41617        42.63459         0.33375
C         51.16594        44.00765         0.49581
O         31.49548        38.83924         0.35783
O         44.29463        34.56512         0.54503
O         46.52397        34.34215        -2.19691
O         38.18084        41.60863         2.47940
O         51.83763        34.61316        -1.64063
O         49.16327        29.67750        -1.38182
O         35.26492        41.97428         1.77480
O         32.76290        36.62741        -2.28361
O         32.34757        42.47230        -2.07634
O         33.29369        33.27939         1.37257
O         38.32330        28.10866         2.17293
O         38.80995        45.21928        -1.65720
O         38.02464        30.54576        -1.21662
O         41.92322        46.06697         2.61698
O         39.45257        44.26524         2.72558
O         38.81270        34.34779         0.93728
O         38.53918        38.14582        -1.66012
O         44.75558        45.76070        -0.37645
O         44.67249        37.18754         0.99551
O         45.09251        27.63395        -1.34010
O         34.20070        39.54019         1.06060
O         48.45835        37.92247        -1.96785
O         41.09350        33.65100        -1.70397
O         50.64612        41.11503        -1.50264
O         42.83716        40.65665        -1.20192
H         42.73890        39.84806        -1.76569
O         44.96002        36.36704        -2.46709
H         45.34836        35.62157        -2.98695
O         39.88444        27.24386        -1.30586
H         39.95170        26.32470        -1.64580
O         44.49232        27.40726         3.00432
H         43.51573        27.43879         3.05291
O         44.65397        29.49853         1.48232
H         44.14797        30.22105         1.91180
O         40.27229        31.26692        -2.25143
H         40.87502        31.93127        -2.65883
O         31.85971        31.79990         3.21636
H         31.64720        32.75245         3.28654
O         42.76311        37.95986        -2.04185
H         43.47073        37.44202        -2.50559
O         42.87582        41.22621         2.41143
H         42.70381        42.05352         2.92732
O         31.22383        32.74060        -1.67217
H         30.36065        33.00003        -2.05533
O         37.11351        32.09408         1.98089
H         36.40882        32.00694         2.65755
O         37.50755        45.62385         1.75886
H         36.59689        45.97595         1.67589
O         38.09211        35.73404        -2.37485
H         38.59207        36.53320        -2.66200
O         35.62725        29.43465         3.42884
H         36.40049        28.93937         3.77270
O         37.90761        32.84572        -2.27744
H         38.39715        32.00597        -2.47644
O         48.78550        42.74529        -2.06860
H         49.36659        42.04973        -2.46382
O         41.77424        35.14531         1.59220
H         41.89557        36.05420         1.93613
O         33.89802        32.88341        -2.20655
H         34.69780        33.05026        -2.75028
O         33.04661        39.97087        -2.51506
H         32.71671        40.73210        -3.04582
O         36.81698        40.18690        -1.48103
H         37.51733        39.64286        -1.92627
O         33.77095        30.39228        -0.77748
H         33.65622        31.12444        -1.43215
O         41.76601        43.52110         2.98652
H         40.88921        43.52920         3.44619
O         44.15504        39.36703         1.97625
H         44.69274        38.56252         2.16081
O         37.29626        39.21890         2.00317
H         37.64989        39.74055         2.76010
