         210
 CSIRO Nanostructure Databank - Neutral Graphene Oxide Data Set
C         30.55753        31.59881        -0.46927
C         30.66045        32.76734        -0.92738
C         30.80845        35.73714        -1.91543
C         30.79356        36.92172        -2.34668
C         30.69439        41.01065        -1.76615
C         30.56094        42.21290        -1.39134
C         32.76833        29.14582         1.15528
C         31.65156        29.61490         0.81026
C         32.80570        31.69567         0.29487
C         31.60248        30.91586         0.18740
C         32.87029        33.03960        -0.17705
C         31.74570        33.65752        -0.81423
C         32.93551        35.85185        -0.98198
C         31.79295        35.01782        -1.23315
C         32.95771        37.25397        -1.34544
C         31.87462        37.79629        -2.10278
C         32.81897        40.32661        -0.83835
C         31.75529        40.08788        -1.74160
C         32.85201        41.50940        -0.03251
C         31.03715        42.89133        -0.27539
C         32.75785        44.28527         0.48734
C         31.65809        44.14735        -0.12443
C         35.46653        27.61491         1.67320
C         35.28214        28.99705         1.38424
C         34.07011        29.65783         1.23985
C         35.32573        31.77392         0.69019
C         33.99572        31.18373         1.10733
C         35.30668        33.16794         0.30287
C         34.09317        33.81953        -0.07678
C         35.31279        35.96246        -0.36373
C         34.10380        35.20094        -0.45311
C         35.29329        37.40065        -0.59111
C         34.12827        38.05436        -1.00320
C         35.35441        40.30786        -0.67156
C         34.10550        39.56398        -1.06438
C         35.31530        41.68787        -0.12409
C         34.05123        42.29036         0.14914
C         35.25891        44.39347         0.66381
C         34.04189        43.69688         0.48737
C         35.42474        45.76994         0.99127
C         37.82755        27.51220         1.39607
C         36.54576        26.99430         1.73693
C         37.79351        28.93618         1.16328
C         36.56270        29.66636         1.17865
C         37.82317        31.83434         0.96352
C         36.51806        31.07474         0.85725
C         37.79413        33.20850         0.34475
C         36.52653        33.89600         0.22716
C         37.78258        36.01915         0.20509
C         36.50400        35.28215        -0.04454
C         37.76826        37.43737        -0.26081
C         36.55185        38.13422        -0.42081
C         37.79478        40.25014        -0.22016
C         36.58860        39.54482        -0.43423
C         37.79764        41.66900         0.03696
C         36.52921        42.35844         0.14523
C         37.77261        44.42256         0.78901
C         36.52900        43.73671         0.54032
C         37.81079        45.80857         1.15892
C         36.50072        46.36495         1.20404
C         40.25107        24.65437         1.13880
C         39.19898        25.36978         1.24793
C         40.16675        27.37886         0.51160
C         38.97603        26.73367         1.13969
C         40.22485        28.85096         0.62360
C         39.07055        29.59684         0.87954
C         40.23645        31.69070         0.31489
C         39.08035        31.03577         0.67220
C         40.19762        33.02641        -0.38000
C         38.97426        33.83887        -0.02879
C         40.21131        35.92914        -0.45768
C         39.01006        35.25341        -0.21477
C         40.24392        37.38425        -0.42262
C         39.00409        38.11412        -0.30692
C         40.25964        40.22548        -0.11809
C         39.02246        39.53345        -0.24306
C         40.25811        41.61640         0.17910
C         39.00971        42.33005         0.31067
C         40.23045        44.36096         1.08814
C         39.02141        43.72255         0.71409
C         40.28293        45.74189         1.44334
C         39.02925        46.45313         1.45701
C         40.23337        48.40179         2.26577
C         39.21433        47.79314         1.87149
C         42.83335        24.65363         0.78454
C         41.50067        25.13393         0.79296
C         42.76065        27.32847         0.04565
C         41.46075        26.57559         0.30352
C         42.78946        28.80154         0.20750
C         41.54660        29.49632         0.58962
C         42.77817        31.70664         0.02313
C         41.54006        31.04593         0.45699
C         42.75250        33.10497        -0.27004
C         41.49076        33.80810        -0.31743
C         42.69365        35.89731        -0.83621
C         41.44711        35.17861        -0.52839
C         42.70409        37.42380        -0.81302
C         41.44417        38.10130        -0.47233
C         42.73045        40.19068        -0.09617
C         41.48553        39.50935        -0.22765
C         42.72585        41.56391         0.27516
C         41.49214        42.25285         0.42444
C         42.80324        44.26450         1.31368
C         41.47801        43.56733         1.08472
C         42.77243        45.67075         1.83197
C         41.53174        46.39378         1.84009
C         42.75812        48.15181         2.82014
C         41.50603        47.77009         2.32490
C         43.91955        25.26901         0.69827
C         45.41650        27.33793         0.09405
C         44.10328        26.59591         0.09184
C         45.28601        28.87032         0.21590
C         43.99654        29.52580         0.15714
C         45.22568        31.70537        -0.03083
C         43.99003        30.98564         0.08743
C         45.22420        33.10464        -0.29606
C         43.97851        33.80378        -0.43369
C         45.16054        35.95186        -0.80434
C         43.97978        35.21912        -0.66824
C         45.19481        37.39110        -0.76496
C         43.98571        38.11060        -0.60857
C         45.21624        40.19529        -0.20974
C         43.98304        39.49421        -0.28876
C         45.21357        41.60414         0.07632
C         43.97735        42.28352         0.36681
C         45.11762        44.43921         0.21151
C         43.96717        43.67519         0.60764
C         45.05543        45.84653        -0.09539
C         43.92983        46.15773         2.49058
C         43.83701        47.50739         2.93160
C         47.41367        27.65707         1.28378
C         46.40815        26.92641         1.19989
C         47.69131        29.00072         0.88551
C         46.45181        29.61534         0.38444
C         47.69121        31.75443         0.04143
C         46.47744        31.04223         0.13439
C         47.69050        33.13774        -0.27960
C         46.45484        33.79357        -0.47552
C         47.70628        35.95124        -1.11471
C         46.41511        35.19301        -0.94767
C         47.68866        37.43837        -0.98037
C         46.44842        38.10858        -0.74006
C         47.69091        40.23435        -0.42826
C         46.45019        39.51375        -0.47438
C         47.70055        41.63399        -0.07153
C         46.43293        42.31330         0.14127
C         47.61311        44.47582         0.18932
C         46.37763        43.74822         0.19876
C         47.32736        45.80714         0.00515
C         46.29064        46.52076        -0.23099
C         50.16047        29.33483         1.32180
C         48.87924        29.68470         0.85851
C         50.23005        31.86126         0.35435
C         49.00212        30.99791         0.04114
C         50.20763        33.21157        -0.06700
C         48.95059        33.87754        -0.40580
C         50.18644        35.93951        -1.08049
C         48.94393        35.21948        -0.76022
C         50.13882        37.43852        -1.41294
C         48.88831        38.16510        -1.04999
C         50.15322        40.30810        -0.69585
C         48.91075        39.56698        -0.73185
C         50.16057        41.69888        -0.31810
C         48.91979        42.33367         0.02518
C         50.14647        44.42984         0.22232
C         48.85736        43.76846         0.61564
C         51.28848        29.88581         1.29670
C         52.56405        32.09795         0.82111
C         51.43886        31.23879         0.85560
C         52.53052        33.27651         0.39594
C         51.43029        34.01182        -0.11660
C         52.51160        36.22613        -0.80513
C         51.45183        35.29111        -0.66031
C         52.56897        37.42951        -1.09012
C         51.43690        38.28057        -1.65789
C         52.44577        40.50568        -0.94773
C         51.37554        39.64433        -1.05238
C         52.56603        41.73192        -0.62357
C         51.41495        42.46025        -0.32986
C         51.21215        43.83356         0.02059
O         42.21781        43.41151         2.36044
O         34.92532        40.18498        -2.10397
O         42.61969        36.68037        -2.07669
O         43.41932        26.78761        -1.16146
O         31.84302        39.06006        -2.65594
O         40.52660        26.80445        -0.79540
O         50.05871        36.45558        -2.48683
O         41.72498        30.38129         1.74741
O         47.02399        35.39371        -2.28537
O         31.67307        41.88896         0.63012
O         40.04085        32.68412        -1.80702
H         40.11872        33.51432        -2.32452
O         33.78082        31.68498         2.46791
H         32.90805        31.35466         2.77180
O         45.02207        45.39174         2.67595
H         45.72000        45.89115         3.14232
O         49.19192        30.55813        -1.33196
H         50.03546        30.05996        -1.38098
O         37.88036        36.11448         1.68031
H         38.74066        36.53530         1.89269
O         46.04332        27.09467        -1.15318
H         45.80307        26.20031        -1.47155
O         51.59827        38.43050        -3.04940
H         51.35349        37.57300        -3.46840
O         37.93401        32.11602         2.40903
H         37.78023        31.27569         2.89160
O         48.80753        43.65170         2.04393
H         49.64151        43.23861         2.35075
O         43.87293        46.43404        -0.37376
H         44.00516        47.38583        -0.55445
