         576
 CSIRO Nanostructure Databank - Neutral Graphene Oxide Data Set
C          6.15494        18.86779         1.51082
C          6.11806        20.26910         1.52497
C          4.88046        20.99923         1.57364
C          6.06058        23.12965         1.26623
C          4.85280        22.36071         1.44149
C          6.01159        24.51774         1.09656
C          8.51298        14.64580         0.49620
C          8.44759        16.04066         0.54695
C          7.31742        16.73759         1.03912
C          8.56351        18.87384         0.90542
C          7.32944        18.13126         1.17759
C          8.59581        20.22344         1.54562
C          7.34338        21.03159         1.46720
C          8.59121        23.20748         1.20801
C          7.31450        22.41269         1.29712
C          8.42438        24.67587         0.94424
C          7.19179        25.33182         0.92967
C          8.26699        27.55148         0.51971
C          7.12678        26.75981         0.73181
C          8.27071        28.95944         0.35051
C         10.82172        10.43957        -0.59647
C         10.83085        11.83539        -0.55368
C          9.66739        12.57138        -0.13832
C         11.00047        14.68684        -0.00425
C          9.67852        13.94183         0.07561
C         10.81579        16.15155        -0.43592
C          9.53462        16.84744        -0.06537
C         10.77545        19.03293        -0.39030
C          9.58232        18.30587         0.16615
C         10.81804        20.53387        -0.54028
C          9.59410        21.36654        -0.35537
C         10.87707        23.34380         0.16203
C          9.64603        22.60764         0.26768
C         10.89049        24.70748         0.37972
C          9.67718        25.41573         0.83815
C         10.74177        27.55108        -0.09053
C          9.59483        26.90546         0.60734
C         10.65836        29.01336        -0.43296
C          9.42264        29.74528         0.03381
C         10.30560        32.09292        -0.27545
C          9.35897        31.13523         0.24802
C         10.76885        33.29412         0.18595
C         13.31582         6.17862        -0.50368
C         13.29362         7.60628        -0.84424
C         12.04804         8.29857        -0.88175
C         13.18557        10.44076        -1.33258
C         11.98212         9.69370        -0.94958
C         13.21447        11.89672        -1.15408
C         12.05421        12.56082        -0.86531
C         13.25082        14.80164        -0.99751
C         11.94301        14.05694        -1.05920
C         13.26952        16.16581        -0.88006
C         12.06665        16.93400        -0.62058
C         13.34279        19.04895        -0.70087
C         12.08820        18.30547        -0.49783
C         13.37831        20.50005        -0.56235
C         12.12112        21.20124        -0.10603
C         13.34668        23.39738        -0.15265
C         12.07188        22.68301        -0.49513
C         13.33617        24.75291         0.02835
C         12.08123        25.47968         0.13491
C         13.27141        27.63127         0.03269
C         12.05424        26.86394         0.04498
C         13.22256        29.00080        -0.21089
C         11.98973        29.68603        -0.56761
C         13.27392        31.80926        -0.72939
C         12.06939        30.98290        -0.99056
C         13.24567        33.27031        -0.43476
C         11.90260        34.04102        -0.52952
C         13.32526        36.07037        -0.03341
C         12.10918        35.42785         0.02129
C         13.44036        37.43574         0.46677
C         15.79212         6.14964        -0.74305
C         14.46801         5.48300        -0.42032
C         15.73089         7.63043        -0.32045
C         14.51001         8.28811        -0.94209
C         15.77061        10.46229        -1.14333
C         14.53051         9.67802        -1.37081
C         15.75511        11.81151        -1.00565
C         14.52095        12.63426        -1.38682
C         15.77175        14.78832        -0.77033
C         14.47940        14.00105        -0.66839
C         15.79023        16.15600        -0.79323
C         14.54126        16.89821        -1.20734
C         15.82542        19.04203        -1.03361
C         14.52847        18.35731        -0.86773
C         15.83038        20.55193        -0.93043
C         14.55215        21.21041        -0.59535
C         15.80683        23.44951        -0.55888
C         14.63157        22.60821        -0.01162
C         15.77278        24.80929         0.11358
C         14.57805        25.49394         0.20326
C         15.73075        27.64636         0.30556
C         14.53858        26.94233         0.27410
C         15.76889        29.09524         0.07177
C         14.48149        29.78712        -0.20493
C         15.80292        31.86033        -0.79842
C         14.54658        31.05795        -1.03770
C         15.74072        33.29874        -0.85913
C         14.53533        34.01361        -0.64839
C         15.74038        36.25345        -0.85047
C         14.53060        35.40908        -0.49051
C         15.84062        37.53752        -0.05648
C         14.62156        38.09869         0.49915
C         18.17333         6.15493         0.01495
C         17.00322         5.46101        -0.15338
C         18.19673         7.61499        -0.20817
C         17.06189         8.32765        -0.52847
C         18.26458        10.54965        -1.41496
C         17.02839         9.63232        -1.33316
C         18.27811        11.85281        -0.69918
C         16.95996        12.55729        -0.45323
C         18.25918        14.70161        -0.39051
C         17.05317        14.01308        -0.97163
C         18.14359        16.14043         0.06719
C         17.01465        16.90961        -0.58060
C         18.27097        19.03313        -0.31190
C         17.06452        18.28589        -0.68405
C         18.26111        20.40796        -0.13084
C         17.13233        21.24121        -0.60868
C         18.33888        23.41030         0.20550
C         17.16181        22.73100        -0.43025
C         18.28584        24.75190         0.49192
C         16.99774        25.45681         0.54218
C         18.27536        27.72376         0.52569
C         16.99004        26.98265         0.62668
C         18.25996        29.07025         0.15945
C         17.04282        29.66294        -0.53641
C         18.21775        31.96748        -0.42053
C         16.98262        31.17819        -0.58108
C         18.27714        33.27954        -1.14267
C         16.96605        34.05474        -1.34638
C         18.23995        36.14869        -0.77036
C         17.05634        35.48916        -0.84630
C         18.28829        37.66007        -0.58046
C         17.02730        38.18056         0.05363
C         20.66635         6.08069         0.10834
C         19.42781         5.48896         0.31514
C         20.71355         7.44771        -0.54461
C         19.50242         8.24419        -0.12278
C         20.74556        10.34609         0.08210
C         19.60025         9.52974         0.37112
C         20.66094        11.73648        -0.03988
C         19.43858        12.48955        -0.26987
C         20.60939        14.65549         0.24661
C         19.42643        13.97092        -0.10659
C         20.65053        16.14258         0.55937
C         19.45071        16.87676         0.01954
C         20.78105        18.91188        -0.03351
C         19.49560        18.24299        -0.09460
C         20.74313        20.36869         0.24010
C         19.46161        21.13358         0.37040
C         20.68585        23.33048         0.91575
C         19.54406        22.63668         0.48865
C         20.73519        24.78866         0.76062
C         19.46235        25.51605         1.07952
C         20.72929        27.62589         0.49440
C         19.49809        26.99421         0.70376
C         20.80289        29.08978         0.50520
C         19.45402        29.86369         0.38533
C         20.79082        31.97264        -0.24055
C         19.48610        31.31412         0.01602
C         20.81059        33.28687        -0.61130
C         19.58801        33.99249        -1.10417
C         20.83090        36.21498        -0.74604
C         19.55150        35.49463        -1.06568
C         20.78284        37.56223        -0.10360
C         19.53258        38.14780         0.12125
C         23.16765         6.02926         0.19435
C         21.90225         5.44558         0.42034
C         23.19703         7.46159        -0.19510
C         22.01614         8.15787        -0.28334
C         23.24343        10.30503         0.06560
C         21.99899         9.65530        -0.46506
C         23.21786        11.75778         0.24914
C         21.92780        12.49269         0.11585
C         23.05255        14.61372         0.97133
C         21.78571        13.88119         0.64420
C         23.13234        16.00990         0.48351
C         22.00369        16.79542         0.24386
C         23.23823        19.07551         0.19025
C         22.01371        18.24912         0.02783
C         23.24038        20.46826         0.41813
C         22.01086        21.08130        -0.15973
C         23.17216        23.33028         0.92636
C         21.97110        22.78073         1.39390
C         23.13529        24.64374         0.26283
C         21.89987        25.44115         0.43618
C         23.14576        27.57395         0.03525
C         21.95540        26.89197         0.31380
C         23.19401        29.02032        -0.05729
C         22.04216        29.77901         0.13705
C         23.28730        31.94579        -0.31894
C         22.06154        31.29647         0.27050
C         23.31801        33.30298        -0.53106
C         22.05505        34.04433        -0.54723
C         23.32602        36.07141        -0.06102
C         22.05985        35.40962        -0.53564
C         23.29235        37.59151        -0.25917
C         21.99595        38.17128         0.23797
C         25.64319         5.62303         0.15285
C         24.33842         5.30865         0.60659
C         25.63611         7.64019        -0.64767
C         24.46218         8.21990        -0.26808
C         25.70169        10.36311         0.18016
C         24.46033         9.65127         0.01287
C         25.71977        11.68893         0.72113
C         24.40339        12.36173         0.92816
C         25.63196        14.56957         1.09130
C         24.34283        13.83754         1.15451
C         25.58729        16.03804         0.95296
C         24.48400        16.44020         0.23194
C         25.70849        19.09433         0.58699
C         24.54364        18.55573         0.05391
C         25.66154        20.46874         0.92532
C         24.42702        21.17382         0.77294
C         25.66166        23.29911         0.79901
C         24.42274        22.61177         0.88437
C         25.71210        24.72415         0.52036
C         24.44562        25.35607         0.07372
C         25.71883        27.56691        -0.12955
C         24.41322        26.83141        -0.17463
C         25.68636        29.04016        -0.10924
C         24.47506        29.69375        -0.22719
C         25.75609        31.82870        -0.61176
C         24.45079        31.10057        -0.74331
C         25.76031        33.20755        -0.93938
C         24.55874        34.02303        -0.84165
C         25.73948        36.25895        -0.60480
C         24.58039        35.42974        -0.64944
C         25.73993        37.52511         0.12995
C         24.53038        38.18214         0.35837
C         28.11478         6.18564         0.34112
C         26.91421         5.45133         0.71462
C         28.15499         7.49344        -0.20523
C         26.97012         8.26025        -0.57898
C         28.23463        10.36845         0.23878
C         26.96606         9.75287        -0.20331
C         28.18655        11.86457         0.37031
C         26.90360        12.35500         1.00391
C         28.12657        14.51293         1.75700
C         26.91358        13.83886         1.14451
C         28.06229        16.06637         1.63713
C         26.82750        16.83141         1.18437
C         28.11881        19.04769         1.24437
C         26.99072        18.27082         0.59012
C         28.10274        20.41182         1.38843
C         26.88045        21.18233         1.16841
C         28.11328        23.35263         1.22821
C         26.86882        22.57203         1.04011
C         28.21618        24.70585         0.56324
C         26.90219        25.45006         0.52905
C         28.13789        27.60449         0.37759
C         26.96066        26.86685         0.26844
C         28.15990        29.02170         0.08991
C         26.95916        29.72164        -0.15753
C         28.22063        31.82552        -0.46261
C         26.97020        31.13389        -0.42771
C         28.25029        33.19998        -0.84729
C         27.02079        33.74559        -1.27799
C         28.23608        36.29627        -0.66268
C         27.00289        35.86038        -1.12096
C         28.24386        37.47972         0.18008
C         26.99281        38.06419         0.53758
C         30.61355         6.15306         0.45208
C         29.37180         5.53935         0.62618
C         30.68219         7.54927         0.14468
C         29.46585         8.26095        -0.37587
C         30.66733        10.41653         0.40277
C         29.41770         9.69994         0.14706
C         30.66826        11.75958         0.76091
C         29.44143        12.51479         0.89713
C         30.68186        14.56518         1.46039
C         29.41083        13.83988         1.27960
C         30.68314        16.08091         1.56458
C         29.37762        16.82183         1.69057
C         30.64309        18.96851         1.16168
C         29.37579        18.30391         1.52742
C         30.66584        20.43534         1.35102
C         29.38124        21.15118         1.63584
C         30.68225        23.36020         1.21890
C         29.39920        22.64995         1.50711
C         30.69203        24.77244         1.16476
C         29.38914        25.48680         1.13366
C         30.68217        27.65123         0.76651
C         29.37782        26.97161         0.90355
C         30.65224        29.04057         0.34586
C         29.42264        29.72158         0.07092
C         30.66364        31.85178        -0.31233
C         29.43899        31.11985        -0.23745
C         30.66085        33.30274        -0.47364
C         29.46516        33.98094        -0.76649
C         30.76883        36.22076        -0.58053
C         29.47076        35.47620        -0.89706
C         30.69236        37.72961        -0.29450
C         29.46003        38.08387         0.50760
C         33.06115         6.08254         0.51670
C         31.86030         5.44591         0.64333
C         33.13653         7.51247         0.32210
C         31.88863         8.24233         0.22530
C         33.14759        10.35238         0.34575
C         31.92380         9.68650         0.29239
C         33.19932        11.78139         0.58776
C         31.96328        12.41134         1.18752
C         33.14625        14.67727         1.10986
C         31.91894        13.90581         1.06522
C         33.08131        16.14219         0.91594
C         31.88152        16.81954         1.09426
C         33.05532        19.00652         0.77314
C         31.80898        18.26476         0.94822
C         33.07545        20.38761         0.82797
C         31.80559        21.17935         0.69056
C         33.10315        23.37192         0.87203
C         31.88274        22.66135         1.01461
C         33.16634        24.79181         1.09516
C         31.91323        25.49631         1.12085
C         33.15516        27.67310         1.04804
C         31.86730        26.94578         1.00034
C         33.13890        29.11989         0.60514
C         31.86224        29.75727         0.19699
C         33.13301        31.86147         0.04663
C         31.86265        31.12714        -0.13696
C         33.11101        33.33267         0.21075
C         31.85908        34.05502        -0.13600
C         33.01176        36.06604         0.73966
C         31.88341        35.42751        -0.05367
C         33.00833        37.56803         0.69179
C         31.95824        38.29199         0.29978
C         34.33993         8.18804         0.18333
C         35.58067        10.32361         0.00332
C         34.39493         9.62878         0.14844
C         35.70098        11.78672         0.33047
C         34.37209        12.47894         0.50095
C         35.52481        14.72047         0.12614
C         34.44951        13.93911         0.77131
C         35.45948        16.11367         0.06226
C         34.28044        16.84422         0.51501
C         35.40533        18.97768         0.02793
C         34.25881        18.24119         0.49752
C         35.41171        20.35758         0.12606
C         34.38507        21.10851         0.96004
C         35.40138        23.17669         0.00696
C         34.29007        22.58428         0.55026
C         35.74711        24.89954         1.68372
C         34.44199        25.55676         1.22364
C         35.72643        27.73669         1.16344
C         34.44632        26.92959         1.11126
C         35.70514        29.19727         0.71112
C         34.41787        29.69781         0.08517
C         35.73297        31.90793        -0.21447
C         34.40665        31.15143        -0.25908
C         35.61025        33.37222         0.09373
C         34.40709        34.07695         0.17179
C         34.33709        35.45849         0.36484
C         36.64446        12.59761        -0.51805
C         37.69825        14.74249        -1.06449
C         36.62660        13.99607        -0.49811
C         37.70323        16.15909        -1.10333
C         36.53717        16.86142        -0.56676
C         37.50096        18.99859        -1.36311
C         36.49698        18.24915        -0.58831
C         37.57363        20.47540        -1.16996
C         36.67169        21.05326        -0.14527
C         37.96883        23.29378        -0.27059
C         36.71758        22.53170         0.04284
C         38.17645        24.67650         0.31244
C         37.17832        25.48764         1.28927
C         38.33989        27.68389         0.49537
C         37.05984        27.00880         1.04300
C         38.15647        29.12325         0.08380
C         36.97183        29.74783         0.11596
C         36.66530        31.09067         0.73049
C         38.81932        16.86331        -1.59441
C         39.91934        19.15006        -2.20838
C         38.74715        18.29157        -1.89876
C         39.90057        20.52291        -2.18671
C         38.72893        21.28866        -1.68368
C         40.07020        23.39492        -1.61090
C         38.91845        22.68049        -1.22198
C         40.20543        24.74437        -1.27576
C         39.37738        25.46994        -0.25190
C         38.98839        26.88183        -0.59908
C         41.05220        21.33057        -2.56278
C         41.10260        22.67383        -2.35471
O         20.09437        20.52195         1.56769
O         37.09483        21.62369         1.14638
O         17.56559        22.13673        -1.71374
O         35.89882        30.32092         1.75173
O         22.13648        14.22255         2.05328
O         33.09772        32.46811         1.40840
O         15.87930        19.89276        -2.23568
O         36.60134        27.58187         2.31019
O         10.63746        19.70658        -1.73019
O         35.72328        24.03647         2.53814
O         27.10813         9.29542        -1.62065
O         24.67218        17.42365        -0.74294
O         22.02914        21.76966        -1.17127
O         10.92333        31.62065        -1.48034
O         25.13239        27.12223        -1.42564
O         29.13329        26.37107         2.24426
O         11.68084        14.61814         1.21802
O         37.57511        18.60666        -2.75707
O         34.13358        14.27088         2.16094
O         26.46272        14.30487        -0.18098
O         20.10769        29.65968         1.67558
O         29.43538        17.69188         2.87167
O         13.80491        10.00635        -2.59632
O         13.29893        32.31448         0.66451
O         16.86464        26.16703         1.84236
O         24.22825        12.89532         2.27059
O         15.13322        29.91617         1.10074
O         33.17802        28.79104         2.01910
O         30.26590        20.73627         2.72220
O         30.38740        35.92255        -1.96310
O         30.87988        15.26739         2.76943
O         34.35791        30.12594        -1.31103
O         25.64131         6.31809        -1.08043
O          9.58045        20.54443         2.23340
O         22.86001        12.47139        -1.03709
O         27.15110        16.66975         2.60190
O         19.11765        10.27993        -2.25857
O         38.68870        23.53416         1.02678
O         28.63716        23.30565         2.58622
O         37.45254        21.18201        -2.45076
O         23.78831        24.65869        -1.04715
O          9.82635        16.40806        -1.45642
O         10.40409        27.98272        -1.45317
O         20.30739        36.17085        -2.13194
O         27.02943        34.86711        -2.10916
O          9.91612        26.39808         1.92701
O         19.10321        33.33320        -2.34397
O         18.66570        32.10008         0.97921
O         28.06218        14.21544         3.16985
H         28.81208        14.67752         3.60778
O         15.50989        36.63008        -2.24228
H         15.74798        35.84508        -2.79264
O         15.95775         6.11099        -2.18390
H         16.00048         5.17433        -2.46585
O         28.13641        12.35231        -1.01598
H         27.32816        11.98902        -1.43859
O         20.45653        16.24445         2.02597
H         21.06619        15.57520         2.43861
O         17.24770        13.94888        -2.41367
H         16.38522        13.67612        -2.81917
O         22.03512        21.88625         2.39594
H         21.14830        21.47547         2.56153
O         11.89898        22.72227        -1.93810
H         12.11975        23.62437        -2.25167
O         18.55524        10.03326         1.09773
H         18.75438        10.93040         1.43521
O         30.49960        38.43074        -1.55387
H         30.22147        37.74748        -2.21299
O         23.34832        37.81812        -1.70417
H         23.27920        38.78201        -1.86577
O         22.09905        31.57041         1.70786
H         21.32982        31.08940         2.10463
O         37.90098        25.43091         2.53448
H         37.94360        24.48362         2.79719
O         18.39295        38.23523        -1.92433
H         19.11979        37.74355        -2.37894
O         36.35063        31.84089        -1.52770
H         35.96268        31.05789        -1.98375
O          8.47370        20.87442        -0.93322
H          8.76754        20.13044        -1.51853
O         39.22627        27.80859         1.67025
H         38.63615        27.83720         2.45909
O         29.68817         8.39563        -1.81724
H         28.87871         8.82751        -2.18448
O         28.58038        24.47336        -0.83600
H         27.76588        24.25510        -1.33760
O         16.88599         9.11993        -2.69115
H         17.79739         9.10120        -3.07267
O         15.55816        23.69063        -1.95878
H         16.15654        23.08878        -2.46646
O         14.61640        16.88144        -2.68317
H         14.06277        17.61503        -3.02700
O         14.65533        12.88471        -2.81779
H         14.55793        12.01065        -3.26446
O         19.33299        25.45056         2.53172
H         18.43256        25.80131         2.74823
O         14.56672        30.63713        -2.43031
H         14.63884        31.43397        -2.99816
O         24.25543        30.93316        -2.20821
H         24.89090        30.25078        -2.51563
O         11.35781        14.25296        -2.36493
H         12.03060        14.02561        -3.04049
O         14.27287        13.70758         0.75892
H         13.36254        14.05822         1.04098
O         35.36717        24.30376        -0.78206
H         34.43363        24.55948        -0.93904
O         14.86639        22.41856         1.41116
H         14.05143        22.00749         1.78626
O         16.79375        12.59344         0.98714
H         15.90760        12.99750         1.18235
O         27.41462        18.06074        -0.78738
H         26.63647        17.71040        -1.28005
O         16.74853        34.17126        -2.79067
H         17.64612        34.11185        -3.20596
O         12.16851        21.12951         1.34849
H         11.25838        21.03447         1.72500
O         34.77244        21.00647         2.35366
H         35.63312        21.47705         2.45525
O         32.09132        12.18015         2.63857
H         32.86263        12.71640         2.94144
O         11.57924        34.19081        -1.93301
H         11.21107        33.32882        -2.24050
O         17.08659        29.20064        -1.92112
H         16.27947        29.54844        -2.37401
O         15.52086         7.66321         1.12247
H         14.70250         7.15727         1.31661
O         17.76841        16.02735         1.48758
H         18.61372        16.01554         2.00751
O         40.36332        25.60317         0.82751
H         40.05478        26.33942         1.42325
O         31.45517        21.12026        -0.74181
H         32.21855        21.45807        -1.25612
O         36.31285        11.81786         1.68623
H         37.19947        11.40401         1.61808
O         21.96531         9.89111        -1.91020
H         22.12544        10.85570        -2.05038
O         20.66484         7.24899        -1.98875
H         20.88861         8.11791        -2.39752
O          9.20557        23.17650         2.53252
H          9.42300        22.23152         2.74170
O         23.38371        35.86897         1.38138
H         23.36630        34.90384         1.55765
O         32.78951        35.71624         2.14900
H         32.89296        34.74323         2.24161
H          5.21179        18.31178         1.61926
H          3.94207        20.43560         1.67924
H          3.89128        22.89475         1.45371
H          5.02881        25.01341         1.09800
H          7.62796        14.06716         0.80836
H          6.41814        16.17362         1.32893
H          6.13449        27.23563         0.71377
H          7.32262        29.49769         0.51006
H          9.90665         9.89544        -0.31716
H          8.73017        12.00945         0.00792
H          8.50237        31.51995         0.82478
H         10.37358        33.70989         1.12396
H         12.35002         5.67849        -0.33217
H         11.13017         7.73028        -0.66693
H         11.23325        35.97395         0.40458
H         12.53153        37.90746         0.86855
H         14.45207         4.40243        -0.20667
H         14.67585        39.10724         0.93607
H         16.99750         4.36154        -0.06847
H         17.08087        39.14104         0.59058
H         19.38327         4.44246         0.65887
H         19.49806        39.15008         0.57719
H         21.86742         4.42828         0.84291
H         21.98708        39.16090         0.72130
H         24.20126         4.47859         1.31835
H         24.50621        39.15237         0.87668
H         27.03368         4.71613         1.52609
H         27.00005        39.00643         1.10532
H         29.34398         4.49149         0.96101
H         29.46047        39.01005         1.10203
H         33.99976         5.51673         0.61160
H         31.82430         4.36572         0.84773
H         33.90275        38.07270         1.08864
H         32.01071        39.39111         0.33109
H         35.28486         7.62380         0.16793
H         36.51836         9.76098        -0.13574
H         36.55220        33.94135         0.11726
H         35.25605        36.06092         0.41854
H         37.49919        12.08778        -0.99064
H         38.55588        14.19574        -1.48412
H         39.08064        29.70987        -0.03172
H         37.50529        31.67268         1.17077
H         39.74765        16.31305        -1.81000
H         40.84874        18.64245        -2.51256
H         41.12346        25.26680        -1.58742
H         39.75536        27.44620        -1.16111
H         41.89639        20.82255        -3.05231
H         41.98787        23.24118        -2.67711
