         404
 CSIRO Nanostructure Databank - Neutral Graphene Oxide Data Set
C          1.42466         1.90357        -1.18059
C          1.35367         3.29836        -1.05802
C          2.63255         1.23933        -1.02851
C          2.49793         4.06436        -0.77577
C          1.24324         6.23629        -0.78933
C          1.21112         7.62975        -0.71502
C          2.44424         5.51837        -0.65138
C          2.36985         8.38170        -0.47225
C          1.20320        10.56642        -0.91301
C          1.19733        11.94889        -0.98676
C          2.36208         9.85179        -0.52021
C          2.36393        12.70591        -0.73302
C          1.18191        14.89939        -1.04497
C          1.18950        16.28277        -1.10606
C          2.36862        14.15995        -0.80405
C          2.38966        17.01198        -0.93885
C          2.41433        18.44326        -1.01251
C          3.81500         1.96730        -0.74214
C          3.74641         3.39140        -0.61310
C          5.06131         1.30158        -0.59037
C          4.93928         4.12681        -0.32090
C          3.63835         6.25040        -0.37875
C          3.59533         7.67819        -0.25675
C          4.88072         5.55450        -0.20989
C          4.78729         8.39642         0.05829
C          3.53183        10.58356        -0.24180
C          3.55531        12.00391        -0.38678
C          4.70665         9.87131         0.38773
C          4.79424        12.73037        -0.24279
C          3.58466        14.87106        -0.61940
C          3.60180        16.30058        -0.69553
C          4.81592        14.16135        -0.38739
C          4.81749        17.03134        -0.53621
C          3.58381        19.14133        -0.86864
C          4.82659        18.45949        -0.63480
C          6.23169         2.00706        -0.29850
C          6.17284         3.44047        -0.14998
C          7.49267         1.34287        -0.17445
C          7.35599         4.16415         0.17598
C          6.06677         6.27816         0.07317
C          6.00586         7.72152         0.19567
C          7.27638         5.56090         0.29728
C          7.22144         8.47797         0.35379
C          6.00948        10.61300         0.21441
C          5.99458        11.99825         0.00548
C          7.23947         9.87951         0.34086
C          7.28810        12.71162        -0.05995
C          6.01542        14.90813        -0.27360
C          6.04244        16.33329        -0.31026
C          7.29909        14.21448        -0.17569
C          7.26577        17.06078        -0.16950
C          6.03908        19.16012        -0.52448
C          7.26886        18.48781        -0.29764
C          8.66664         2.02524         0.13567
C          8.62913         3.46912         0.36886
C          9.92721         1.35674         0.13676
C          9.79141         4.13579         0.69950
C          8.48075         6.30868         0.69154
C          8.49326         7.74375         0.30471
C          9.78503         5.59420         0.90923
C          9.79489         8.47797         0.40668
C          8.50168        10.57760         0.53144
C          8.43730        12.05282         0.63363
C          9.70957         9.92506         0.62406
C          9.67954        12.84293         0.88008
C          8.50185        14.98848         0.16876
C          8.50998        16.37618         0.09284
C          9.75577        14.23442         0.32674
C          9.75040        17.13668         0.26364
C          8.49168        19.20541        -0.22534
C          9.73654        18.57991         0.04655
C         11.12327         2.00905         0.44872
C         11.04081         3.37810         1.10480
C         12.36596         1.35732         0.31697
C         12.34278         4.19586         0.98432
C         11.06408         6.35027         0.78266
C         11.04726         7.74571         0.71157
C         12.30016         5.65631         0.76439
C         12.27524         8.48765         0.69319
C         10.96985        10.60827         0.98152
C         10.96125        12.10167         1.13794
C         12.24083         9.89095         0.74694
C         12.25190        12.87350         1.10208
C         11.02026        15.01931         0.47211
C         10.95421        16.48611         0.48980
C         12.26135        14.35854         0.96680
C         12.22422        17.18626         0.72645
C         10.94355        19.29684        -0.02458
C         12.22223        18.74366         0.39485
C         13.60499         2.02776         0.42246
C         13.64187         3.48607         0.68221
C         14.83193         1.38536         0.29239
C         14.82132         4.24662         0.19729
C         13.51700         6.35831         0.54219
C         13.51827         7.78633         0.53721
C         14.73480         5.63890         0.22399
C         14.74084         8.54799         0.40624
C         13.45143        10.66126         0.46732
C         13.46496        12.16708         0.60171
C         14.74123         9.96553         0.43395
C         14.75179        12.88172         0.63820
C         13.52895        15.05507         0.66447
C         13.51140        16.46187         0.58384
C         14.74139        14.31680         0.64282
C         14.72816        17.17756         0.44781
C         13.51412        19.31016         0.03778
C         14.72521        18.61265         0.20808
C         16.07649         2.07906         0.13832
C         16.04691         3.52718        -0.13402
C         17.24269         1.32548         0.39136
C         17.20020         4.27191        -0.48031
C         15.88247         6.45499        -0.20817
C         15.96154         7.88338         0.13527
C         17.16177         5.75011        -0.54418
C         17.17602         8.59306         0.03014
C         15.94690        10.70421         0.36740
C         15.94122        12.15629         0.47251
C         17.18056        10.00786         0.20622
C         17.18384        12.86823         0.44756
C         15.97091        15.02842         0.53548
C         15.96280        16.45955         0.44515
C         17.18971        14.29839         0.49577
C         17.20088        17.15520         0.32893
C         15.97385        19.26935         0.03822
C         17.20678        18.58353         0.13549
C         18.53073         1.70554        -0.08475
C         18.45379         3.70236        -0.84678
C         19.80928         1.55878         0.41715
C         19.70021         4.35547        -0.77645
C         18.41766         6.52347        -0.46155
C         18.42346         7.89126        -0.24491
C         19.64724         5.83408        -0.87594
C         19.68536         8.62851        -0.20700
C         18.42695        10.72909         0.21383
C         18.40778        12.15314         0.36284
C         19.66006        10.04637         0.08944
C         19.64102        12.86205         0.48434
C         18.42815        15.00994         0.48803
C         18.43046        16.44195         0.39903
C         19.64518        14.29827         0.56528
C         19.66911        17.13438         0.33228
C         18.45055        19.25320         0.02132
C         19.67865        18.56092         0.12470
C         20.96266         2.28520        -0.08759
C         20.93234         3.65425        -0.60600
C         22.20124         1.67265         0.10840
C         22.18439         4.36691        -0.73940
C         20.92120         6.61702        -0.96360
C         20.90105         8.00244        -0.46298
C         22.19869         5.83312        -1.06644
C         22.16804         8.77153        -0.43429
C         20.89331        10.75292         0.29957
C         20.85038        12.15168         0.53497
C         22.15241        10.09113         0.23036
C         22.04510        12.83582         1.06654
C         20.88304        15.00468         0.64671
C         20.89586        16.42208         0.47760
C         22.09600        14.31180         0.92094
C         22.14492        17.10292         0.41099
C         20.92695        19.21807         0.00079
C         22.14978        18.52011         0.11725
C         23.42976         2.28878        -0.26265
C         23.41247         3.70163        -0.60935
C         24.60667         1.55658        -0.32464
C         24.69496         4.37587        -0.69077
C         23.48375         6.60933        -1.03515
C         23.47569         8.11931        -0.79582
C         24.75801         5.84226        -0.85616
C         24.79077         8.87891        -0.47482
C         23.37045        10.68424         0.69424
C         23.29407        12.03829         1.34413
C         24.59535        10.03719         0.51958
C         24.55705        12.82332         1.80509
C         23.31062        15.00408         0.95534
C         23.35785        16.39616         0.61667
C         24.55134        14.32509         1.40216
C         24.62160        17.07311         0.42010
C         23.38762        19.16902        -0.06852
C         24.61231        18.47021         0.03569
C         25.87053         2.17842        -0.83497
C         25.88728         3.66618        -0.57361
C         27.06520         1.45918        -0.29967
C         27.12848         4.32485        -0.23834
C         26.01326         6.56094        -0.42325
C         25.94657         7.98512        -0.04184
C         27.16038         5.72590        -0.01428
C         27.07761         8.56944         0.48879
C         25.84299        10.64853         1.01957
C         25.87687        12.09232         1.49928
C         27.13012         9.98233         0.73769
C         27.13031        12.86292         1.23559
C         25.85600        15.03457         1.13627
C         25.84544        16.39540         0.54247
C         27.10506        14.23436         1.06927
C         27.08563        17.06192         0.28328
C         25.83229        19.12980        -0.20687
C         27.06876        18.45708        -0.09686
C         28.25460         2.11696         0.00659
C         28.30371         3.56920         0.03488
C         29.44599         1.39160         0.26136
C         29.52457         4.22484         0.36057
C         28.32728         6.34675         0.46262
C         28.26298         7.76355         0.83933
C         29.54445         5.63698         0.57314
C         29.58548         8.49181         1.04911
C         28.34440        10.65772         0.90742
C         28.36328        12.11733         1.00227
C         29.58523         9.94353         0.86422
C         29.54510        12.77110         0.70058
C         28.35101        15.00828         0.93621
C         28.32776        16.40355         0.44255
C         29.64412        14.22882         0.77682
C         29.55433        17.06482         0.16092
C         28.28788        19.13322        -0.30212
C         29.52761        18.46816        -0.19461
C         30.69421         2.04525         0.39728
C         30.74039         3.48206         0.46224
C         31.89608         1.30715         0.43129
C         31.99544         4.15277         0.61661
C         30.80197         6.32899         0.77495
C         30.83620         7.74415         0.86088
C         32.02669         5.60353         0.75121
C         32.05956         8.45657         0.78888
C         30.81444        10.58555         0.62836
C         30.74317        12.01596         0.28095
C         32.05109         9.89929         0.64128
C         32.03250        12.75556         0.04373
C         30.85646        14.93076         0.29571
C         30.81179        16.37834         0.15494
C         32.02197        14.22861         0.12836
C         32.00650        17.07109        -0.16704
C         30.73680        19.15833        -0.43427
C         31.97996        18.49342        -0.41957
C         33.14865         1.96725         0.42908
C         33.17597         3.40009         0.57015
C         34.35018         1.24350         0.25131
C         34.52090         4.01110         0.86565
C         33.25516         6.31622         0.85934
C         33.27943         7.72577         0.83182
C         34.53087         5.54214         0.92660
C         34.58459         8.49363         0.99407
C         33.29839        10.62249         0.43989
C         33.30119        12.01747         0.19361
C         34.54383         9.93689         0.52019
C         34.51971        12.72947        -0.04676
C         33.33817        14.94313         0.18551
C         33.25688        16.37827        -0.27894
C         34.48550        14.12095        -0.33019
C         34.41982        17.07009        -0.57710
C         33.19463        19.19112        -0.62804
C         34.42951        18.51155        -0.67808
C         35.54160         1.93501        -0.23959
C         35.58117         3.44175        -0.08376
C         36.82115         1.24355        -0.41459
C         36.87811         4.14193        -0.25552
C         35.79838         6.25424         0.55600
C         35.72251         7.73154         0.31448
C         36.93315         5.51443        -0.05521
C         36.99254         8.45909         0.04237
C         35.75136        10.63379         0.27022
C         35.74661        11.99601        -0.07270
C         37.06150         9.90825         0.38953
C         37.02136        12.65523        -0.57146
C         35.70258        14.81971        -0.74782
C         35.68042        16.34485        -0.84169
C         36.99698        14.16668        -0.51164
C         36.94570        17.07401        -0.69068
C         35.66700        19.19297        -0.77818
C         36.91416        18.51104        -0.69808
C         38.00498         1.92763        -0.57989
C         38.04860         3.38579        -0.61378
C         39.26249         1.21134        -0.66190
C         39.28498         4.03125        -0.76687
C         38.07305         6.27294        -0.56412
C         38.26420         7.68328        -0.08557
C         39.34743         5.48356        -0.94080
C         39.56863         8.39527        -0.25736
C         38.38294        10.62151         0.30082
C         38.25664        12.08725         0.07213
C         39.64080         9.88659        -0.09855
C         39.30195        12.92833         0.34309
C         38.15591        14.92780        -0.42674
C         38.15376        16.37687        -0.56509
C         39.40081        14.28342        -0.09731
C         39.39510        17.08434        -0.49070
C         38.14008        19.20456        -0.64121
C         39.37191        18.51705        -0.55074
C         40.45838         1.85982        -0.69082
C         40.52030         3.30349        -0.71421
C         41.72417         4.00298        -0.66207
C         40.63805         6.18401        -0.87813
C         40.62774         7.68934        -1.12774
C         41.77223         5.42503        -0.70392
C         41.96643         8.36505        -0.99925
C         40.88802        10.46937        -0.27369
C         41.13821        11.88044         0.00366
C         42.04356         9.66835        -0.67753
C         41.95867        12.77863        -0.66099
C         40.66000        14.92710        -0.26924
C         40.64558        16.39283        -0.38646
C         41.83529        14.19120        -0.54637
C         41.82563        17.14255        -0.33714
C         40.60416        19.23140        -0.50552
C         41.80076        18.54956        -0.40207
O         13.22034        11.57172        -0.71979
O         12.20014        18.17318         1.76050
O         39.21576         7.74456         1.02012
O         10.90684        11.25777         2.32363
O         35.60493        15.51311        -2.06315
O         25.72524         6.30079        -1.85503
O         13.27723         3.83961         2.07328
O         38.40762         6.01225        -1.95559
O         35.48226         5.97506         1.97846
O         22.89500         6.19605        -2.30615
O         25.95761        11.00634         2.45659
O          8.69753        12.67181         1.94516
O         36.04843         8.15328        -1.03897
O         22.28877        12.20790         2.39793
O         16.26740         6.22469        -1.61975
O          9.26280         8.03565        -0.91608
O         40.38795        12.40397         1.06854
O         22.75682         8.83225        -1.84057
O          7.58570        13.30245        -1.35370
O         28.77193         8.02601         2.18414
O         31.20079        12.28338        -1.09784
O          8.95594         6.04924         2.05340
O         29.24965        14.79285         2.08093
O         18.45738         2.39782        -1.31855
O         10.65113        14.39277        -0.82663
O         37.81164        10.18565         1.60767
O         12.34053        13.72039         2.29037
O         20.11141         6.38280        -2.16898
O         35.13387         2.89616        -1.34573
O         25.22670        15.07987         2.46491
O         40.23309         7.89528        -2.51101
H         39.46056         7.30374        -2.69505
O         10.84946         3.10470         2.52268
H         11.74867         3.09340         2.92824
O         34.87665         8.56443         2.41281
H         35.05032         7.64476         2.72705
O          4.43930         9.90572         1.84700
H          4.41200        10.84831         2.11788
O         34.88583         3.51098         2.18422
H         35.36754         4.23633         2.64732
O         33.62194        15.06087         1.64701
H         32.85466        15.51709         2.05728
O         25.89637         2.01321        -2.31071
H         25.27556         2.66883        -2.69547
O         25.22971         9.51906        -1.70425
H         24.44203         9.56018        -2.29788
O         24.52959        12.83094         3.24330
H         23.59290        12.94292         3.52277
O         37.10284        12.32219        -2.00967
H         36.44611        12.87975        -2.48103
H          0.51029         1.33538        -1.40158
H          0.37805         3.78531        -1.18887
H          2.68350         0.14567        -1.12773
H          0.30042         5.70629        -0.97977
H          0.24423         8.13076        -0.85720
H          0.27649        10.02773        -1.15097
H          0.26405        12.45242        -1.27177
H          0.22712        14.37444        -1.18187
H          0.25208        16.82715        -1.29057
H          1.46996        18.97653        -1.19552
H          5.09987         0.20791        -0.70490
H          3.58819        20.23889        -0.93698
H          7.53140         0.25583        -0.34315
H          6.03872        20.25631        -0.61944
H          9.96148         0.30591        -0.19202
H          8.47075        20.29508        -0.37674
H         12.37450         0.29418         0.02879
H         10.93266        20.30983        -0.45443
H         14.85302         0.28537         0.26095
H         13.53945        20.32294        -0.39214
H         17.12946         0.38125         0.94617
H         15.98082        20.35470        -0.14246
H         19.98718         0.85460         1.24359
H         18.46057        20.34123        -0.14243
H         22.23067         0.64110         0.48908
H         20.94726        20.29983        -0.19918
H         24.58998         0.48096        -0.09396
H         23.40343        20.23936        -0.32228
H         27.04039         0.35898        -0.28725
H         25.82304        20.19512        -0.48073
H         29.41753         0.29199         0.24120
H         28.27258        20.20184        -0.56267
H         31.86020         0.21047         0.35491
H         30.70259        20.23381        -0.66326
H         34.33474         0.14364         0.26694
H         33.17376        20.28622        -0.72991
H         36.83654         0.14691        -0.32323
H         35.66684        20.29089        -0.84611
H         39.22996         0.11193        -0.65548
H         38.13990        20.30459        -0.65718
H         41.40063         1.29337        -0.70646
H         42.66796         3.44528        -0.58295
H         42.75745         5.90733        -0.63855
H         42.87187         7.82390        -1.30794
H         43.02202        10.17142        -0.66919
H         42.72854        12.39312        -1.34708
H         42.68969        14.76735        -0.93526
H         42.79581        16.63890        -0.22657
H         40.58929        20.32966        -0.55156
H         42.74829        19.10463        -0.35966
