         477
 CSIRO Nanostructure Databank - Neutral Graphene Oxide Data Set
C         28.00116        27.54979        -1.93538
C         27.96598        29.06423        -2.01919
C         26.66529        29.70895        -1.58042
C         27.78986        31.95109        -1.29102
C         26.60861        31.00426        -1.23390
C         27.89196        32.92896        -0.03678
C         26.63431        33.72029         0.23791
C         27.72881        35.90526        -0.30198
C         26.57941        35.05989         0.20737
C         27.67027        37.35787         0.15472
C         26.57704        38.20140        -0.35160
C         27.79375        40.25459         0.22292
C         26.61031        39.55489        -0.22254
C         27.72943        41.76332         0.33624
C         26.98900        42.20048         1.59586
C         27.71328        44.50884         1.09746
C         27.00105        43.48974         1.95546
C         28.01901        45.80894         1.80371
C         30.26715        27.43327        -0.82738
C         29.05381        26.82946        -1.51401
C         30.41498        28.91499        -1.30738
C         29.07257        29.67974        -1.13512
C         30.42338        31.86042        -1.00159
C         29.14002        31.18318        -1.37190
C         30.36376        33.21867        -0.41173
C         29.10260        33.85322        -0.25258
C         30.25906        35.96374         0.24456
C         29.05743        35.22959        -0.02268
C         30.24714        37.36808         0.52955
C         28.95136        38.09280         0.54438
C         30.19091        40.30112         0.81604
C         28.95676        39.56585         0.44570
C         30.27095        41.75792         0.48278
C         29.08441        42.47499         0.35679
C         29.93319        44.81496         0.03584
C         28.96663        43.92070         0.46323
C         30.06258        46.18058         0.48792
C         29.06832        46.59485         1.46838
C         32.87409        24.62911        -1.32918
C         31.65233        25.30109        -1.24204
C         32.80904        27.32722        -0.63718
C         31.59793        26.67539        -0.96120
C         32.90662        28.83380        -0.78653
C         31.57808        29.59941        -0.56775
C         32.80739        31.66657        -0.06189
C         31.75653        31.08950        -0.97010
C         32.69676        33.03917         0.35538
C         31.52334        33.86381         0.00458
C         32.70685        35.95539         0.62427
C         31.49676        35.25394         0.33076
C         32.67332        37.33037         0.83674
C         31.43432        38.04131         0.84490
C         32.75409        40.23948         1.39094
C         31.42187        39.50730         1.16105
C         32.74062        41.67680         0.92475
C         31.59948        42.36942         0.50718
C         32.92613        44.49374         0.39124
C         31.81409        43.70397         0.01845
C         33.02361        45.84028         0.07310
C         31.16727        46.99335         0.16129
C         32.80530        48.84520         0.50378
C         31.52429        48.29200         0.61690
C         35.47074        23.12449        -1.13432
C         35.42294        24.61970        -1.31120
C         34.08150        25.26453        -0.99985
C         35.26898        27.26678        -0.08532
C         34.03367        26.61450        -0.60946
C         35.24006        28.75620         0.23592
C         34.02629        29.52432        -0.05417
C         35.24871        31.63062         0.41440
C         33.99953        30.91935         0.14496
C         35.23203        33.01476         0.57143
C         33.99443        33.76500         0.73690
C         35.27030        35.90567         0.96396
C         34.02579        35.24502         0.39680
C         35.21399        37.32547         1.35907
C         33.92510        38.06006         1.19749
C         35.29513        40.21632         0.96456
C         33.96146        39.51026         0.76549
C         35.30539        41.65348         0.96429
C         34.02879        42.37034         1.15901
C         35.36887        44.57281         0.96621
C         34.06908        43.87558         1.09484
C         35.37195        45.98308         0.76987
C         34.03417        46.68684         0.80087
C         35.27574        48.76400         0.07299
C         34.03941        48.14299         0.38642
C         35.34661        50.18717        -0.23553
C         37.91893        23.20056        -1.01771
C         36.65762        22.48107        -1.10469
C         37.88754        24.56954        -0.73259
C         36.63989        25.28806        -0.68731
C         37.79192        27.35752         0.05801
C         36.59277        26.61534        -0.26901
C         37.73736        28.73713         0.30510
C         36.52024        29.48313         0.29445
C         37.74382        31.60113         0.47355
C         36.49506        30.88992         0.31530
C         37.73542        33.07886         0.39872
C         36.45191        33.82595         0.40566
C         37.75886        35.90848         1.04846
C         36.46693        35.25770         0.81831
C         37.80952        37.35714         1.37060
C         36.50722        38.09072         1.41427
C         37.76706        40.16928         0.71044
C         36.48731        39.51855         1.05180
C         37.75386        41.67311         0.57396
C         36.49727        42.38109         0.86763
C         37.83644        44.50893         0.96837
C         36.53861        43.80926         0.92296
C         37.84264        46.01753         0.83903
C         36.55726        46.69311         0.54272
C         37.71181        48.59314        -0.58386
C         36.50055        48.03085         0.04850
C         37.66011        49.99787        -1.19602
C         36.45036        50.77401        -0.73400
C         40.42592        20.45555        -1.73707
C         39.24212        21.12972        -1.60147
C         40.32956        23.02956        -0.50811
C         39.17684        22.46491        -1.04179
C         40.40728        24.47720        -0.22513
C         39.14700        25.28777        -0.43725
C         40.27119        27.31263         0.40122
C         39.09203        26.68509         0.06134
C         40.28215        28.79123         0.71052
C         39.03965        29.49805         0.16820
C         40.03258        31.66377         1.30927
C         38.91906        30.91512         0.66792
C         40.25347        33.05212         0.78737
C         39.01124        33.83888         0.55148
C         40.21612        35.91735         1.33986
C         38.95554        35.27031         0.87922
C         40.31250        37.39909         1.23274
C         39.08385        38.08938         1.11871
C         40.29257        40.18253         0.75912
C         39.08051        39.48512         0.89770
C         40.27535        41.59206         0.21382
C         39.04280        42.39252         0.58020
C         40.29385        44.48262         0.32724
C         39.07856        43.75922         0.66029
C         40.34572        45.87644         0.26022
C         39.16387        46.75911         0.65527
C         40.29930        48.71388        -0.34643
C         39.05993        47.94297        -0.29100
C         40.27082        50.15499        -0.59359
C         38.94293        50.81657        -0.96882
C         40.20182        52.73128        -1.88900
C         39.02591        52.08201        -1.72157
C         42.88910        20.38564        -1.36129
C         41.64613        20.98000        -1.19562
C         42.84372        22.87563         0.03866
C         41.54881        22.21143        -0.39662
C         42.82974        24.28639         0.51140
C         41.54652        25.05171         0.59396
C         42.75353        27.39111         1.01828
C         41.50255        26.57193         0.83227
C         42.79524        28.79613         0.69068
C         41.61164        29.46509         0.28108
C         42.82586        31.63592         0.29590
C         41.75469        30.81162        -0.18358
C         42.71536        33.06720         0.61727
C         41.55911        33.70555         1.00333
C         42.74563        35.89239         1.64782
C         41.48283        35.11569         1.45851
C         42.80899        37.39787         1.52641
C         41.53770        38.09663         1.20392
C         42.79003        40.21338         0.95731
C         41.55636        39.51448         0.96077
C         42.78882        41.72177         0.98601
C         41.54096        42.36954         0.43910
C         42.69426        44.39184        -0.46137
C         41.51619        43.71903         0.19733
C         42.79499        45.88276        -0.20284
C         41.58428        46.56421         0.03238
C         42.86331        48.79254        -0.30740
C         41.54443        48.04345         0.02238
C         42.76596        50.15376        -0.89116
C         41.52759        50.83080        -0.97576
C         42.66940        52.76914        -1.92016
C         41.47069        52.13038        -1.53642
C         44.09351        21.00750        -0.93848
C         45.37116        22.94356         0.01279
C         44.12748        22.25528        -0.32886
C         45.31150        24.12529         0.90274
C         43.96737        24.65060         1.17216
C         45.26030        27.38375         1.18289
C         43.95857        26.82625         1.42694
C         45.26567        28.79954         0.99634
C         44.03200        29.50242         0.79350
C         45.23009        31.67164         0.73003
C         44.03928        30.94350         0.64922
C         45.25700        33.09464         0.24375
C         43.94273        33.95644         0.47060
C         45.25897        35.88292         1.60769
C         44.00165        35.10203         1.51733
C         45.34050        37.37833         1.44824
C         44.13375        38.06957         1.35764
C         45.34838        40.27024         1.00329
C         44.07694        39.57866         1.46197
C         45.29824        41.67476         0.60403
C         44.06133        42.32061         0.43066
C         45.26807        44.31060        -0.69602
C         43.99174        43.58738        -0.32268
C         45.16007        45.78106        -1.15306
C         44.00379        46.56138        -0.52137
C         45.23101        48.64719        -1.05840
C         44.04914        47.96912        -0.62931
C         45.21706        50.05727        -1.28771
C         43.95109        50.78628        -1.33011
C         43.88209        52.11116        -1.81931
C         47.75281        23.35947        -0.32764
C         46.59066        22.55798        -0.50009
C         47.75121        24.59213         0.27614
C         46.55817        25.11485         0.97677
C         47.69335        27.36186         1.00190
C         46.48352        26.62466         1.12894
C         47.69785        28.79245         1.01182
C         46.50271        29.50050         1.00890
C         47.79044        31.64729         0.84953
C         46.48366        30.99172         1.22261
C         47.75542        33.10444         0.59581
C         46.46396        33.80011         0.80452
C         48.21571        36.10111         1.20833
C         46.40953        34.99181         1.42496
C         47.90081        37.49601         0.95994
C         46.60994        38.09998         1.19443
C         47.82298        40.29540         0.94221
C         46.54041        39.53925         0.99809
C         47.79831        41.80790         0.68517
C         46.51190        42.41699         0.34163
C         47.75259        44.41262        -0.42108
C         46.53659        43.72627        -0.19570
C         47.73374        45.75009        -1.05358
C         46.47561        46.52137        -1.05351
C         47.70177        48.65440        -1.37090
C         46.48162        47.91714        -1.15832
C         47.63964        50.02574        -1.57033
C         46.42307        50.72149        -1.53290
C         50.21741        24.56306         0.66828
C         49.04158        25.38422         0.19319
C         50.19429        27.36139         1.17326
C         48.99984        26.71803         0.88781
C         50.18112        28.85015         1.52366
C         49.03295        29.46591         0.69728
C         50.28289        31.73279         1.04036
C         48.96803        30.98307         0.83438
C         50.27883        33.11798         0.50353
C         49.03136        33.86873         0.48575
C         50.20808        36.01705        -0.17284
C         49.09333        35.34631         0.48981
C         50.24307        37.48019         0.06307
C         49.02424        38.18757         0.42417
C         50.25744        40.29695         0.33847
C         49.07922        39.61718         0.54057
C         50.34598        41.77367         0.62233
C         49.04519        42.46987         0.28582
C         50.27739        44.50261        -0.36585
C         49.01867        43.76868        -0.21012
C         50.28529        45.87996        -0.69579
C         49.04730        46.48422        -1.24803
C         50.19548        48.72019        -0.99979
C         49.04013        47.97170        -1.61830
C         51.35785        25.17594         1.03284
C         52.68646        27.26952         0.97980
C         51.45018        26.63120         1.07157
C         52.77054        28.74634         1.03957
C         51.52677        29.55484         1.25868
C         52.70372        31.55633         0.32912
C         51.54099        30.95512         0.75617
C         52.68912        32.92053        -0.30099
C         51.41864        33.71570        -0.18321
C         52.77120        35.88316        -0.22624
C         51.45785        35.20799        -0.40062
C         52.71296        37.34903         0.05462
C         51.44537        38.12037        -0.10289
C         52.79462        40.27932         0.00730
C         51.46437        39.61011        -0.24301
C         52.78585        41.72682        -0.13423
C         51.56013        42.43704         0.02099
C         52.80315        44.57934        -0.06612
C         51.50378        43.82330        -0.17579
C         52.73649        46.04070        -0.44331
C         51.47395        46.65938        -0.61046
C         51.34659        48.10718        -0.66793
C         55.08331        27.22693         0.43814
C         53.92261        26.57060         0.74355
C         55.13399        28.66218         0.26941
C         53.95977        29.41998         0.48243
C         55.16718        31.48378        -0.05309
C         53.95382        30.81404         0.25954
C         55.21280        32.95205        -0.14176
C         53.98983        33.68541        -0.67334
C         55.24714        35.91764        -0.17375
C         53.94441        35.18868        -0.27669
C         55.31471        37.35884         0.38673
C         53.98440        38.11627         0.27023
C         55.17280        40.19960        -0.71122
C         53.97001        39.57372        -0.03317
C         55.22124        41.71196        -0.55910
C         53.99749        42.39817        -0.42174
C         55.24596        44.60353        -0.59334
C         53.93957        43.86698        -0.77844
C         55.19169        46.00619        -0.54767
C         53.97124        46.70298        -0.55188
C         56.31834        29.33196        -0.10288
C         56.33735        30.71811        -0.22605
C         56.34801        33.62352         0.16972
C         56.47547        35.08378         0.03102
C         56.48758        38.14481        -0.15008
C         56.45097        39.43535        -0.49782
C         56.41235        42.45513        -0.70007
C         56.43275        43.85605        -0.65664
O         46.18159        24.21785         2.06556
O         30.90432        44.27477        -0.85980
O         47.91583        41.23029         2.06482
O         52.43706        29.31404         2.38887
O         42.04828        22.05249         0.98211
O         29.94272        31.75940        -2.43150
O         48.29512        33.38294        -0.75714
O         43.91917        25.63911         2.15061
O         37.11370        33.53128        -0.87270
O         51.75098        32.94298        -1.42110
O         42.36491        48.70100         1.05067
O         37.65239        40.80345        -0.63506
O         37.88268        45.37618         2.16400
O         33.11315        33.31267         1.76267
O         40.59944        35.30299         2.62004
O         28.18625        32.08178         1.03379
O         40.61778        31.31338         2.32390
O         39.41316        50.88818         0.39696
O         40.17643        25.19621        -1.50008
O         38.34550        47.65243        -1.54645
O         44.63491        43.40319        -1.64470
O         56.15750        35.63714        -1.27668
O         50.62826        35.63571        -1.53059
O         53.16250        37.74214         1.43717
O         41.17757        25.59298         1.89156
O         43.74382        34.69074        -0.71268
O         39.84705        33.41748        -0.58959
O         37.23088        37.77214         2.66003
O         44.66617        35.15800         2.81142
O         42.71562        36.71285         2.83848
O         49.28523        29.23101        -0.65696
O         33.88386        43.21966         2.37574
O         47.50665        35.41335         2.18733
O         34.37949        37.69410         2.52376
O         35.07039        27.73302         1.29309
O         30.51449        39.94166         2.23367
O         32.10975        46.43666        -0.77033
O         48.47371        45.70433        -2.35205
O         28.00303        37.56827         1.55033
O         29.99356        27.37793         0.59943
H         29.18023        27.92552         0.75582
O         51.33323        39.83130        -1.72290
H         50.58685        39.27647        -2.03971
O         30.72351        28.89290        -2.71718
H         31.66765        28.60386        -2.82028
O         53.13247        44.54974         1.35795
H         52.31022        44.69464         1.87078
O         49.88614        29.05519         2.92524
H         50.71881        28.86036         3.41565
O         40.21701        28.86796         2.14815
H         40.93474        28.32321         2.53407
O         42.76858        42.12524         2.41076
H         43.30207        41.44728         2.90594
O         32.33381        31.23631        -2.29668
H         31.56916        31.24460        -2.92790
O         42.32246        44.33726        -1.88282
H         42.10796        43.40360        -2.10234
O         28.64420        29.55521         0.24328
H         28.49070        30.46894         0.64964
O         33.00759        40.28186         2.80465
H         32.13554        40.39512         3.24945
O         44.05487        39.81865         2.94511
H         43.53568        39.09070         3.35569
O         49.25670        25.69478        -1.22735
H         49.38086        26.66602        -1.31907
O         54.10573        33.66062        -2.10724
H         53.19225        33.66932        -2.47767
O         37.52570        49.85779        -2.63294
H         37.85298        48.95763        -2.86608
O         35.58595        24.85183        -2.75798
H         36.44147        24.45274        -3.02603
O         39.49695        47.35075         1.93255
H         39.30027        46.67529         2.62168
O         33.76019        39.46378        -0.67745
H         34.13093        40.27804        -1.07837
O         45.34917        32.91902        -1.17725
H         44.77011        33.66374        -1.54176
O         31.33047        29.64175         0.84099
H         30.96781        28.75902         1.11668
O         39.21331        29.54880        -1.28095
H         38.54994        30.16718        -1.65374
O         40.22671        41.42442        -1.25689
H         39.32344        41.07058        -1.45776
O         46.40094        31.18379         2.68792
H         45.63054        30.67535         3.02145
O         55.60989        37.20667         1.80326
H         54.75365        37.27952         2.28754
O         27.63754        32.79787        -2.43681
H         28.45362        32.69393        -2.98350
O         54.87942        39.99601        -2.14514
H         53.97955        40.35049        -2.31949
O         50.53272        41.92590         2.07478
H         49.69337        41.61338         2.49744
O         40.93589        31.28312        -1.13164
H         41.17937        32.19674        -1.39384
O         26.77510        44.85291         0.01039
H         27.19217        45.55752        -0.52983
O         49.25315        48.05773        -3.05612
H         48.82512        47.26047        -3.44822
O         27.61488        35.94577        -1.75848
H         27.51580        35.01713        -2.07431
O         26.99846        42.23001        -0.81924
H         26.75779        43.17979        -0.67362
O         44.83943        45.76314        -2.57353
H         44.11826        45.09531        -2.68683
O         50.29085        31.88418         2.51858
H         50.07352        30.99254         2.89996
O         34.21363        35.25634        -1.05730
H         34.16387        36.18382        -1.37175
O         28.17137        29.42821        -3.40075
H         29.09142        29.16346        -3.63459
O         53.64996        43.90321        -2.20786
H         54.40704        43.49514        -2.67824
O         33.34933        28.91167        -2.19055
H         33.34556        29.87298        -2.45244
O         33.58618        46.64046         2.20295
H         34.35299        46.86896         2.77061
H         27.13071        27.01813        -2.35431
H         25.74947        29.09709        -1.56340
H         25.64047        31.44741        -0.95265
H         25.76611        33.15119         0.60481
H         25.65031        35.57901         0.49146
H         25.73172        37.71094        -0.85583
H         25.76301        40.16494        -0.56608
H         26.44928        41.44987         2.19236
H         26.45800        43.83966         2.84653
H         27.28955        46.16441         2.54649
H         28.97730        25.73053        -1.53582
H         29.20392        47.56776         1.96315
H         32.87546        23.58141        -1.66050
H         30.73109        24.74837        -1.47145
H         32.85918        49.94006         0.62202
H         30.72349        48.93841         1.00736
H         34.53711        22.54506        -1.15770
H         34.47181        50.81300        -0.00826
H         36.67769        21.38302        -1.06128
H         36.44737        51.85767        -0.92191
H         40.45144        19.48750        -2.25827
H         38.32877        20.69022        -2.02464
H         40.22703        53.69086        -2.42631
H         38.10342        52.48354        -2.16448
H         42.95616        19.42449        -1.89146
H         42.62665        53.78300        -2.34248
H         45.03583        20.48390        -1.15196
H         44.78966        52.62401        -2.16212
H         48.67391        23.02057        -0.82228
H         46.66676        21.67146        -1.14421
H         48.55244        50.58863        -1.80491
H         46.44030        51.80552        -1.70184
H         50.15612        23.46550         0.65517
H         50.14662        49.81748        -0.96566
H         52.23512        24.57924         1.32114
H         52.20189        48.71304        -0.33494
H         56.00503        26.65222         0.26657
H         53.93221        25.47276         0.78988
H         56.13153        46.57900        -0.56610
H         53.99821        47.79660        -0.66849
H         57.23802        28.75326        -0.26929
H         57.27712        31.21980        -0.49501
H         57.22097        33.07669         0.55723
H         57.35241        35.55432         0.52185
H         57.46190        37.63521        -0.10281
H         57.38713        39.92064        -0.81261
H         57.37203        41.92563        -0.78001
H         57.40197        44.37726        -0.64871
