         260
 CSIRO Nanostructure Databank - Neutral Graphene Oxide Data Set
C         30.92213        32.49803        -2.36588
C         30.88212        33.60257        -1.81367
C         30.53123        36.36273        -0.52777
C         30.44145        37.46979         0.04378
C         30.02962        40.42155         1.28368
C         30.14751        41.65085         1.28434
C         33.05122        29.45791        -2.10026
C         32.09060        30.13702        -2.50200
C         32.93305        31.97492        -0.97642
C         31.47643        31.25165        -1.75526
C         32.81147        33.21033        -0.40500
C         31.42298        33.90304        -0.45098
C         32.60808        35.99603         0.76627
C         31.40920        35.32632         0.05279
C         32.54898        37.46072         1.19823
C         31.26374        38.21923         0.92598
C         32.81668        40.49103         1.82646
C         30.92017        39.34880         1.62306
C         32.63521        41.93505         1.49274
C         31.22733        42.62553         1.27989
C         32.43149        44.29763        -0.04102
C         31.39598        43.74340         0.35276
C         35.78401        27.80083        -1.69231
C         35.33363        28.99194        -0.97738
C         34.23258        29.87843        -1.39276
C         35.43397        31.94597        -0.66365
C         34.14251        31.17198        -0.89531
C         35.28751        33.16615         0.24911
C         33.93669        33.85475         0.35326
C         35.08868        35.99035         1.23619
C         33.88524        35.29541         0.72960
C         35.15589        37.49391         1.29900
C         33.85995        38.22471         1.47917
C         35.11238        40.38754         0.93518
C         33.86098        39.71209         1.37856
C         35.11891        41.88586         1.22889
C         33.82352        42.47435         0.69580
C         34.98298        44.32280        -0.84692
C         33.76441        43.68600        -0.20212
C         35.30928        45.78943        -0.63058
C         38.20854        27.93673        -1.52216
C         36.89056        27.29012        -1.86997
C         37.84969        28.71569        -0.20329
C         36.56082        29.58450        -0.28911
C         37.84168        31.72302         0.42388
C         36.67244        31.08953        -0.27778
C         37.79366        33.17129         0.78419
C         36.56450        34.00358         0.37556
C         37.65497        36.01473         1.49149
C         36.38482        35.23213         1.26038
C         37.68415        37.46479         0.98118
C         36.34807        38.16556         1.21578
C         37.70659        40.37690         1.20518
C         36.41265        39.63691         0.99448
C         37.71138        41.85058         0.94045
C         36.40388        42.56504         0.72167
C         37.65515        44.22240        -0.82136
C         36.35590        43.59023        -0.39753
C         37.65815        45.62978        -1.35297
C         36.36800        46.17358        -1.21755
C         40.50951        24.91714        -1.38646
C         39.52094        25.68587        -1.56767
C         40.49287        27.50554        -0.49098
C         39.36457        27.02670        -1.20872
C         40.45874        28.98244        -0.08619
C         39.06499        29.45806         0.38843
C         40.23600        31.56413         1.37282
C         38.96277        30.84888         0.95566
C         40.18925        33.07967         1.48288
C         38.92211        33.80109         1.20538
C         40.20137        36.05247         1.29621
C         38.93578        35.26219         1.52200
C         40.18755        37.50337         1.71788
C         38.89076        38.25003         1.58557
C         40.19689        40.54494         1.51029
C         38.88927        39.72730         1.40732
C         40.22256        41.53586         0.31301
C         39.01475        42.45706         0.44341
C         40.20653        44.17199        -1.10074
C         38.98787        43.72349        -0.33460
C         40.14963        45.57403        -1.57488
C         38.88420        46.21857        -1.72838
C         40.12335        48.15778        -2.55608
C         39.07543        47.55160        -2.22153
C         43.01094        24.77069        -0.69405
C         41.70019        25.34506        -0.78262
C         42.89889        27.33197         0.26408
C         41.65181        26.69989        -0.27994
C         42.89483        28.81158         0.40138
C         41.56806        29.31982         0.93954
C         42.72560        31.67315         0.87671
C         41.54879        30.82196         1.28609
C         42.77165        33.08377         1.40359
C         41.47857        33.85353         1.50406
C         42.77896        36.09635         1.41436
C         41.50456        35.33676         1.21933
C         42.77860        37.44220         1.65691
C         41.51469        38.23448         1.81531
C         42.82566        40.54723         1.36759
C         41.51677        39.74028         1.64086
C         42.75467        41.42535         0.09378
C         41.53541        42.37843         0.24004
C         42.81080        44.15973        -1.02724
C         41.50456        43.44924        -0.85546
C         42.75015        45.62233        -1.33148
C         41.42221        46.33306        -1.64726
C         42.72935        48.14092        -2.60897
C         41.43338        47.69218        -2.34911
C         44.10253        25.35075        -0.55711
C         45.43171        27.53610        -0.23163
C         44.28295        26.66361         0.06800
C         45.26419        28.97675        -0.32872
C         44.00743        29.56682         0.15406
C         45.17338        31.87402        -0.03784
C         43.91567        31.05576         0.19295
C         45.27614        33.11159         0.80548
C         44.03739        33.84490         1.26888
C         45.32197        35.97573         1.43557
C         44.02395        35.34754         0.96706
C         45.34712        37.44171         1.68618
C         44.05268        38.21264         1.71844
C         45.22791        40.05796         0.42352
C         44.07856        39.67276         1.37550
C         45.25953        41.50342        -0.06429
C         44.06612        42.17294        -0.19667
C         45.35047        44.23728        -0.84411
C         44.00191        43.51941        -0.76300
C         45.22348        45.55433        -1.66831
C         44.03710        46.23978        -1.79729
C         43.79140        47.49426        -2.38935
C         47.94500        27.39637        -0.73004
C         46.71396        27.11165        -0.53489
C         48.25108        28.55614        -1.48922
C         46.25814        29.78369        -0.92261
C         47.75571        31.95834        -0.56038
C         46.40056        31.26178        -0.67958
C         47.71488        33.41779        -0.08392
C         46.54022        33.87307         0.74249
C         47.81067        35.99371         1.12487
C         46.58061        35.31401         1.06859
C         47.87029        37.38310         1.33674
C         46.65103        38.17031         1.51723
C         47.80073        40.19057         0.40538
C         46.58403        39.60306         0.96534
C         47.83558        41.34262        -0.34905
C         46.48082        41.85341        -0.93190
C         47.40336        43.72902        -2.26876
C         46.47344        43.32328        -1.34626
C         47.37647        45.11072        -2.73796
C         46.44472        45.82876        -2.29127
C         50.75859        29.33780        -1.65546
C         49.34837        29.35661        -1.74758
C         50.21296        32.28573        -1.13903
C         48.91380        31.61482        -1.24728
C         50.65843        32.95227        -0.00764
C         48.87751        33.88445         0.76095
C         50.36223        35.78205         1.51492
C         49.04627        35.19435         1.08634
C         50.44272        37.30795         1.61750
C         49.17708        38.06186         1.15927
C         50.15437        40.47504         1.03971
C         49.08131        39.51845         0.77414
C         50.31246        41.55815         0.15749
C         49.16127        41.87782        -0.69898
C         50.64892        43.25473        -1.96501
C         49.36501        42.67721        -1.85072
C         51.77070        30.06149        -1.74568
C         53.20278        32.10083        -1.09778
C         52.21466        31.40227        -1.80715
C         52.84364        33.23402        -0.56891
C         51.83929        33.73755         0.23608
C         52.84264        35.80935         1.19665
C         51.82117        34.73950         1.37931
C         52.78840        37.03833         1.15382
C         51.78682        38.01347         1.46033
C         52.93443        40.24145         0.98253
C         52.00501        39.35609         1.61995
C         52.70979        41.37642         0.51248
C         51.65667        42.10068        -0.11089
C         51.62092        42.96217        -1.20192
O         48.91655        30.62473        -2.25160
O         40.77594        33.55340         2.74032
O         41.56877        39.13689         2.96711
O         35.57282        35.19181         2.43646
O         45.43737        32.08596        -1.46033
O         40.91746        31.04116         2.56067
O         49.81302        32.91885         1.11264
O         37.02122        43.16212        -1.62551
O         47.04072        29.23183        -1.93276
O         31.48859        35.29258         1.48692
O         49.39971        38.46817        -0.25780
O         39.24156        43.74887         1.09017
O         43.64710        26.70573         1.35877
O         46.76521        39.35263         2.37916
O         35.47890        28.99617         0.47420
O         40.74637        43.17710        -2.07240
O         42.81046        31.62966        -0.58776
O         42.07300        46.41059        -0.30397
O         46.25326        32.98429         1.88616
O         50.94128        40.16597         2.14682
O         39.34582        37.79069         2.87668
O         38.75083        29.68900         1.80590
O         37.19304        42.82784         1.91626
O         45.35201        36.48906         2.80325
O         37.89591        37.42203        -0.38968
O         44.27184        39.24743         2.74871
O         51.08402        32.21286        -2.25799
O         43.61008        33.36126         2.56617
O         33.04660        37.63669         2.54272
O         38.24965        35.64861         2.75631
O         50.32731        36.45588         2.80192
O         35.74914        40.00043        -0.29482
O         44.94099        39.33093        -0.77140
O         33.62463        42.32039        -0.73983
O         31.81633        39.84646         2.59629
O         40.80495        35.76345        -0.00794
O         31.97385        42.77271         2.48825
O         37.82155        31.53501        -1.05892
O         48.37198        42.88169        -2.78196
O         34.51067        32.95764         1.42804
O         42.56030        40.56248        -1.03244
H         43.40611        40.02460        -1.15197
O         40.10918        41.33896         2.70783
H         40.34939        40.75451         3.46268
O         42.99737        41.41342         2.50189
H         43.24371        40.83034         3.25774
O         37.58847        27.64390         0.70727
H         37.40839        28.02663         1.59334
O         45.69567        44.63041         0.50218
H         44.89264        44.96683         0.95415
O         35.01556        42.01818         2.65565
H         35.89251        42.32620         2.99640
O         35.69855        32.48639        -1.98720
H         36.02624        31.76872        -2.56963
O         51.90103        34.08436         2.59807
H         51.76491        34.73444         3.32059
O         44.05883        35.44036        -0.48482
H         43.14892        35.56201        -0.83339
O         38.55490        28.85905        -2.55883
H         38.74753        28.35642        -3.37844
O         40.04136        40.74883        -0.86418
H         40.30365        41.27944        -1.65259
O         40.76400        29.77861        -1.24661
H         40.04952        29.65517        -1.92127
O         46.29368        41.10062        -2.14778
H         45.83335        40.24093        -1.89094
O         34.82858        44.14967        -2.23843
H         34.42088        43.27248        -2.40558
O         36.86691        34.57828        -0.90763
H         36.87412        33.86310        -1.58803
O         41.69034        43.17951         1.41519
H         41.28599        42.71483         2.18855
O         30.57219        33.16578         0.45268
H         30.57576        33.62321         1.32580
O         41.32376        28.56740         2.12910
H         40.80538        29.13945         2.74493
O         47.73712        34.23448        -1.28515
H         46.98938        33.95199        -1.85746
O         30.64718        30.77529        -0.78160
H         30.33613        31.52791        -0.21561
