         317
 CSIRO Nanostructure Databank - Neutral Graphene Oxide Data Set
C         30.87545        31.86664        -0.71033
C         30.89075        32.94475        -1.30796
C         30.64200        36.06288        -1.65655
C         30.59186        37.28642        -1.43901
C         30.35482        40.31025        -0.40867
C         30.20059        41.46695         0.03382
C         32.64583        28.67138        -0.28124
C         31.72180        29.49541        -0.40231
C         32.62466        31.25941         0.80286
C         31.50616        30.83124         0.04807
C         33.19251        33.23701        -1.99213
C         31.86559        33.86273        -1.84897
C         33.07830        36.05399        -2.05704
C         31.76876        35.22929        -1.87149
C         32.94548        37.69635        -1.89180
C         31.62540        38.24188        -1.23671
C         32.69461        40.21190        -0.17998
C         31.49549        39.50570        -0.73606
C         32.62770        41.68246         0.21683
C         31.31215        42.47504        -0.17920
C         32.53740        44.36878         0.58379
C         31.43355        43.79458         0.54590
C         35.42145        27.28824        -0.74413
C         35.18003        28.75643        -0.67559
C         33.98334        29.11678         0.18114
C         35.21877        31.27140         0.81346
C         33.92698        30.50833         0.82446
C         35.61758        33.27425        -1.39861
C         34.33005        33.92128        -1.57242
C         35.47724        36.05047        -1.10160
C         34.10095        35.37548        -1.09741
C         35.42210        37.53881        -0.77797
C         34.28396        38.41997        -1.32352
C         35.22975        40.33593         0.13297
C         34.01324        39.53599        -0.28691
C         35.24353        41.85685         0.00693
C         33.90680        42.45471         0.43237
C         35.07256        44.66224         0.66160
C         33.91173        43.95790         0.55885
C         35.26185        46.04733         0.91776
C         37.82088        27.23965        -0.55223
C         36.43567        26.67356        -0.39895
C         37.66567        28.70166         0.00194
C         36.49914        29.39355        -0.15950
C         37.65243        31.61546         0.40348
C         36.37925        30.81231         0.21524
C         37.79411        33.06248        -0.02941
C         36.66012        33.80021        -0.63276
C         37.82813        35.95745        -0.19619
C         36.46732        35.24166        -0.16703
C         37.67410        37.39917         0.32145
C         36.51275        38.17165        -0.27269
C         37.81983        40.47659         0.04683
C         36.52795        39.63635         0.09909
C         37.73609        41.85549         0.70206
C         36.38114        42.52655         0.85539
C         37.68243        44.72398         1.25364
C         36.48167        44.02645         0.53077
C         37.45544        46.22821         1.83863
C         36.25771        46.76780         1.10430
C         40.36559        24.44159        -0.33256
C         39.30927        25.09333        -0.38729
C         40.25757        27.22206         0.25486
C         38.96900        26.45585         0.03215
C         40.17589        28.75084         0.07992
C         38.87933        29.30085         0.75774
C         40.22616        31.50832         1.15705
C         38.87422        30.84406         0.81694
C         40.14841        33.05087         0.98251
C         38.95005        33.72086         0.37123
C         40.27419        35.95114         0.34382
C         38.93631        35.23546         0.59824
C         40.27946        37.45456         0.22660
C         38.97366        38.22881         0.03480
C         40.22151        40.30127         1.01198
C         38.88929        39.58976         0.76728
C         40.18553        41.79943         1.12423
C         38.88325        42.55426         0.96476
C         40.23274        44.69602         1.16286
C         38.87139        44.01596         1.25823
C         40.59144        46.02301         1.74305
C         38.63433        47.14693         1.84187
C         40.09322        48.93695         0.86750
C         39.04158        48.31770         1.28577
C         43.02311        24.54248        -0.28122
C         41.67258        25.11846        -0.63431
C         42.85135        27.31982         0.26426
C         41.59929        26.50976         0.15817
C         42.79250        28.81959        -0.00751
C         41.47529        29.48753         0.39737
C         42.65388        31.71204         0.25780
C         41.46991        30.82421         0.61366
C         42.76223        33.01667         1.08826
C         41.45687        33.82222         1.05841
C         42.71379        35.97190         0.71673
C         41.53220        35.26913         0.72157
C         42.79402        37.44970         0.32119
C         41.51030        38.21909         0.56207
C         42.78303        40.33269         1.15950
C         41.50178        39.54684         0.84625
C         42.64944        41.71024         0.48012
C         41.52078        42.54987         1.17672
C         42.81674        44.62744         0.71913
C         41.40903        43.92688         0.54089
C         42.78022        46.15316         0.64460
C         41.90838        46.71371         1.53403
C         42.56112        48.95694         0.00997
C         41.45241        48.88918         0.90614
C         44.00321        25.31485        -0.27291
C         45.34611        27.39873         0.32351
C         44.20619        26.69274         0.03349
C         45.30316        28.81539         0.71293
C         43.95305        29.54803         0.71009
C         45.20372        31.71711         0.96425
C         44.06989        30.99285         0.22622
C         45.23280        33.06709         0.99812
C         43.98829        33.80124         0.54874
C         45.17326        35.97200         0.68675
C         43.97347        35.28443         0.83563
C         45.24890        37.39610         0.58780
C         44.00303        38.11966         1.00723
C         45.15832        40.25586         0.29584
C         44.02987        39.59714         0.73419
C         45.12811        41.72810         0.14727
C         43.97438        42.44494         0.28264
C         45.18708        44.67922        -0.03660
C         43.88469        43.92671        -0.14835
C         45.21755        46.20270         0.27349
C         43.88882        46.82721        -0.19025
C         43.62154        48.30177        -0.06632
C         47.85398        27.21516         0.65359
C         46.68884        26.90911         0.35654
C         48.33713        28.06019         1.70066
C         46.35511        29.46709         1.33206
C         47.60632        31.62165         0.44218
C         46.47953        30.98062         1.37871
C         47.75283        33.09560         0.76721
C         46.51281        33.85011         1.25633
C         47.58935        35.82042        -0.05926
C         46.39806        35.16565         0.51072
C         47.49907        37.26605        -0.57121
C         46.35007        38.07234         0.04126
C         47.46465        40.15293        -0.76216
C         46.32146        39.48603        -0.12174
C         47.43033        41.67125        -1.01103
C         46.41579        42.43155        -0.15349
C         47.50400        44.57111        -1.24364
C         46.42377        43.92578        -0.31535
C         47.46970        46.01180        -0.79767
C         46.46315        46.63335        -0.44514
C         50.74943        28.51685         1.51319
C         49.55807        28.31901         2.28248
C         50.16188        31.51072         0.53938
C         48.94559        30.91786         0.31436
C         50.25058        33.03637         0.54924
C         48.90847        33.74586         0.48006
C         49.86719        35.63041        -0.92980
C         48.96756        35.26054         0.28615
C         49.99335        37.19980        -1.09373
C         48.84112        37.96024        -0.43339
C         50.08949        40.12313        -0.92922
C         48.79333        39.36805        -0.83000
C         50.01340        41.50551        -1.60852
C         48.83195        42.33318        -1.02813
C         50.04212        44.25157        -1.93265
C         48.82756        43.83709        -1.19563
C         51.36346        29.28488         0.77167
C         52.31831        31.32391        -0.58617
C         51.53203        30.76974         0.60362
C         52.23789        32.56237        -0.74504
C         51.25877        33.57294        -0.53304
C         52.20776        35.73522        -1.47241
C         51.20715        34.86387        -0.95526
C         52.38171        36.96984        -1.50080
C         51.37852        37.81237        -0.69434
C         52.40035        40.10586        -1.66241
C         51.37742        39.31680        -0.94958
C         52.40104        41.28459        -2.03352
C         51.41060        42.30401        -1.52453
C         51.07187        43.61744        -2.18533
O         40.15517        40.95441         2.33321
O         33.17337        41.85883         1.54459
O         46.92745        43.25792         0.92047
O         46.76539        34.93477        -0.90915
O         39.68377        46.60339         2.66736
O         47.91925        39.54630        -2.03144
O         40.03061        45.92707         0.36691
O         49.18335        43.21985         0.06189
O         40.61743        33.64994         2.25413
O         35.81106        39.83338         1.38168
O         40.49385        36.59151        -0.96587
O         33.19594        39.29262         0.87894
O         47.24855        28.82965         2.23874
O         50.94741        40.04350         0.24144
O         42.26399        26.68888         1.44964
O         34.08147        29.23244         1.59270
O         37.97143        31.40230         1.84746
O         39.43533        26.71733         1.35512
O         41.88881        48.03706         2.01533
O         43.51588        43.89565        -1.55301
H         44.33512        43.92158        -2.09426
O         33.19685        31.95894        -2.38765
H         34.11919        31.60850        -2.42565
O         42.89372        28.91128        -1.45464
H         43.60577        29.56714        -1.68065
O         36.85004        44.17447        -0.85576
H         36.84098        45.13154        -1.06998
O         49.42377        35.91852         1.46753
H         50.14863        35.37176         1.85399
O         35.17810        32.46613         1.45268
H         36.04808        32.92734         1.45246
O         37.09030        46.00261         3.19861
H         37.87890        46.14705         3.76365
O         47.03581        31.59335        -0.89217
H         47.61732        32.11199        -1.48769
O         42.18336        41.39095        -0.85022
H         42.12110        42.23586        -1.36052
O         46.98604        44.50481        -2.56725
H         47.67579        44.81378        -3.19135
O         36.01209        42.43007         2.23942
H         35.81261        41.48420         2.43529
O         35.93736        35.16960         1.17444
H         36.40758        35.85298         1.72969
O         40.00948        29.03405        -1.33632
H         40.84984        28.79029        -1.79229
O         38.24753        35.96725        -1.58073
H         38.41923        35.03789        -1.84485
O         52.19823        31.20181         1.78547
H         53.07893        30.77484         1.82442
O         50.81291        33.51533         1.79968
H         51.51927        32.87348         2.06354
O         33.50374        35.42706         0.19930
H         34.21780        35.28509         0.87238
O         43.57726        29.62469         2.10553
H         43.27141        28.73926         2.40117
O         41.68979        25.46664        -2.00004
H         41.66561        24.65166        -2.54211
O         49.18160        35.12290        -2.08844
H         49.58786        35.56777        -2.86827
O         34.89725        39.11306        -2.42877
H         34.22531        39.13245        -3.16018
O         47.19656        37.17316        -2.00333
H         46.80362        36.27628        -2.14022
O         49.76447        41.29565        -3.00087
H         49.16275        40.52216        -3.10427
O         43.38976        44.39818         2.02578
H         42.82739        44.79190         2.72483
O         43.04058        32.66579         2.44600
H         42.21042        32.28922         2.82866
O         43.72826        46.47134        -1.55962
H         42.92515        46.90721        -1.91119
O         45.34243        46.40211         1.67097
H         46.13775        45.92638         1.98958
O         32.60221        32.53944         1.21038
H         33.45996        32.81635         1.60706
O         42.88453        40.46444         2.59834
H         43.05617        39.55448         2.94926
O         38.66413        35.36410         2.00529
H         39.34895        34.83601         2.48813
O         48.79493        29.67608        -0.19161
H         49.66384        29.27665        -0.41269
O         43.81404        37.91913         2.44922
H         44.69636        37.90334         2.87745
O         51.71988        42.56681        -0.19524
H         52.54651        43.08589        -0.13707
O         41.75128        42.80069         2.56790
H         41.85489        41.92323         3.01197
O         31.39522        42.73307        -1.56082
H         30.59811        43.22307        -1.84900
O         32.77950        38.17749        -3.23377
H         32.88178        37.39291        -3.83621
O         38.08127        40.85850        -1.31804
H         38.32409        40.05332        -1.83667
O         46.82752        31.36223         2.72964
H         46.14075        30.99616         3.32677
O         46.67783        34.12892         2.65557
H         46.82663        33.25879         3.09783
O         35.78089        32.08710        -2.06005
H         36.67029        31.71409        -1.89389
O         38.34513        39.37515         2.07832
H         38.68117        40.10411         2.65751
O         43.06523        37.48129        -1.09526
H         42.26421        37.12568        -1.54730
O         34.91614        29.30032        -1.97902
H         34.04238        28.95657        -2.27078
O         33.47288        35.81756        -3.41442
H         34.46340        35.86690        -3.44998
O         44.01251        33.75027        -0.91511
H         44.79330        34.27565        -1.20651
O         37.32970        37.27691         1.71043
H         36.91836        38.11976         2.01546
O         41.09052        43.79447        -0.84754
H         40.76379        44.66850        -1.15711
O         42.26126        32.09202        -1.08539
H         42.27892        31.28280        -1.64143
O         49.85898        37.49885        -2.50375
H         48.88297        37.51408        -2.69443
O         35.39771        42.14816        -1.38967
H         36.32585        41.93439        -1.65027
O         38.82604        28.88565         2.12125
H         38.17090        29.45695         2.57811
O         38.09811        27.31257        -1.94570
H         37.34659        27.75125        -2.39629
O         46.88271        41.83894        -2.34376
H         47.16498        41.07177        -2.89179
O         51.61190        37.57671         0.67217
H         52.12321        38.31907         1.05476
O         44.49320        30.96358        -1.15255
H         44.51915        31.90893        -1.44864
O         40.40440        31.26832         2.57858
H         39.57821        31.55967         3.02691
O         35.91456        35.94810        -2.48300
H         36.78957        36.40194        -2.55651
O         38.93856        38.50499        -1.38448
H         39.22146        37.67468        -1.84099
O         49.58121        28.95919         3.49574
H         48.65578        29.05325         3.80687
