         404
 CSIRO Nanostructure Databank - Neutral Graphene Oxide Data Set
C          1.24626         3.55936        -1.57461
C          0.05186         4.14398        -1.12789
C          1.23380         6.22231        -0.64984
C          0.04710         5.45097        -0.66575
C          1.26730         7.55433        -0.07162
C          0.18963         8.00814         0.72116
C          1.45887         9.96487         1.30630
C          0.31097         9.17530         1.45921
C          1.43782        12.25813         1.71165
C          0.29932        12.91082         2.22919
C          1.11694        15.00112         1.36010
C          0.12110        14.26790         2.04325
C          1.09375        16.45796         1.35159
C         -0.05430        17.22836         1.69666
C          1.15624        19.33722         1.32487
C         -0.02459        18.60618         1.66856
C          1.17942        20.76881         1.19949
C         -0.04190        21.54308         1.24114
C          1.15705        23.67618         0.93129
C         -0.07892        22.88190         1.01732
C          1.16004        25.06668         0.41509
C         -0.04595        25.77101         0.29667
C          1.13370        27.77370        -0.42533
C         -0.06050        27.09649        -0.11465
C          1.09488        29.16034        -0.86416
C         -0.07759        29.88822        -0.97588
C          1.08965        32.04126        -1.16341
C         -0.07417        31.30548        -1.07766
C          1.13125        33.42932        -0.61456
C         -0.08261        34.26649        -0.59764
C          1.21954        36.27589        -0.03489
C         -0.02332        35.59344        -0.32470
C          1.23093        37.66560         0.26358
C          3.67967         3.65161        -2.12290
C          2.42646         4.29770        -1.59197
C          3.64499         6.43783        -1.19663
C          2.43339         5.64818        -1.15362
C          3.59222         7.79385        -0.84193
C          2.43237         8.36840        -0.22220
C          3.56239        10.63392         0.14403
C          2.47694         9.68192         0.37725
C          3.57531        12.03240         0.40436
C          2.39122        12.85546         0.86886
C          3.18583        15.14979         0.16065
C          2.19690        14.29176         0.73259
C          3.40903        16.44994         0.57690
C          2.28362        17.17154         1.06823
C          3.55958        19.27175         0.69589
C          2.34553        18.60224         1.07419
C          3.55406        20.66973         0.56356
C          2.38893        21.41289         0.84756
C          3.64891        23.57135         0.29307
C          2.45226        22.88844         0.82935
C          3.63522        24.97191         0.08870
C          2.38535        25.71147         0.08878
C          3.62421        27.75787        -0.60793
C          2.37382        27.07775        -0.32159
C          3.63038        29.12022        -0.97689
C          2.35176        29.80624        -1.25335
C          3.65744        32.07560        -1.54565
C          2.34078        31.33935        -1.47554
C          3.68062        33.57721        -1.11193
C          2.44631        34.13665        -0.44935
C          3.66343        36.21882         0.26799
C          2.44567        35.58659        -0.09716
C          3.67843        37.64572         0.51484
C          2.41953        38.32556         0.47640
C          6.13027         3.67122        -1.64464
C          4.93829         4.36997        -1.70896
C          6.15065         6.44218        -1.28433
C          4.91280         5.77401        -1.45253
C          6.14589         7.91876        -1.14111
C          4.79359         8.62744        -0.99131
C          6.12316        10.68637        -0.19044
C          4.75570        10.05670        -0.52139
C          6.10509        11.98266         0.47462
C          4.88376        12.66668         0.37267
C          6.10941        14.83016         0.54257
C          5.06176        14.07573         0.13506
C          6.05506        16.30480         0.66363
C          4.75887        17.07235         0.68119
C          6.03989        19.19774         0.53761
C          4.80788        18.54256         0.55911
C          6.05725        20.63436         0.37959
C          4.77699        21.32494        -0.02932
C          6.06029        23.48551        -0.07664
C          4.83372        22.82613         0.12265
C          6.07841        24.89940        -0.27023
C          4.85724        25.63551        -0.24368
C          6.08595        27.69258        -0.86843
C          4.85904        27.03592        -0.54605
C          6.07220        29.08619        -1.15779
C          4.85580        29.81568        -1.17741
C          6.12745        31.82170        -1.73581
C          4.87808        31.23119        -1.52536
C          6.16511        33.87121        -1.19870
C          4.91282        34.29075        -0.74076
C          6.10452        35.86307         0.63020
C          4.87093        35.42503         0.14315
C          6.12989        37.98508         0.93477
C          4.84284        38.46898         0.60704
C          8.53378         3.46411        -1.28433
C          7.39041         4.31229        -1.47424
C          8.60311         6.52856        -1.17994
C          7.38712         5.75344        -1.37775
C          8.58904         7.82386        -0.59172
C          7.35580         8.58146        -0.58753
C          8.46686        10.46450         0.69102
C          7.34048         9.88244        -0.14705
C          8.54430        11.99131         0.64922
C          7.34530        12.67364         0.72494
C          8.54064        14.84797         0.39912
C          7.33934        14.15254         1.07737
C          8.55343        16.34540         0.62451
C          7.34250        17.04205         0.57937
C          8.52431        19.16073         0.75146
C          7.31020        18.47061         0.62468
C          8.47480        20.63369         0.83894
C          7.24123        21.33720         0.42238
C          8.52455        23.39767        -0.04203
C          7.30446        22.74200         0.07968
C          8.56844        24.72299        -0.75824
C          7.31153        25.56663        -0.57847
C          8.59441        27.56776        -1.27957
C          7.31022        26.92086        -0.88871
C          8.63568        29.05329        -1.46384
C          7.34203        29.78837        -1.47196
C          8.57579        31.98404        -1.11338
C          7.38059        31.26037        -1.36763
C          8.59569        33.39414        -0.73187
C          7.41228        34.19336        -0.60403
C          8.54768        36.16511         0.36455
C          7.37812        35.40805         0.18343
C          8.59093        37.61205         0.57413
C          7.39896        38.44544         0.58874
C         11.09556         3.46735        -1.07258
C          9.84872         3.88378        -1.55569
C         11.08750         6.52643        -1.06162
C          9.86165         6.00895        -1.52417
C         11.04632         7.84855        -0.53238
C          9.81654         8.46701        -0.27402
C         11.07650        10.56296         0.51935
C          9.80350         9.77398         0.44135
C         11.04616        12.02930         0.68667
C          9.81404        12.71551         0.72049
C         11.03567        14.87011         0.79961
C          9.83341        14.14192         0.70947
C         11.03398        16.32593         0.84486
C          9.79600        17.03989         0.76114
C         11.01863        19.18015         0.95831
C          9.78080        18.47408         0.83528
C         11.03935        20.63005         0.87910
C          9.76213        21.38831         0.84244
C         10.96033        23.47382         0.31983
C          9.76348        22.77860         0.33280
C         11.01283        24.86491        -0.08965
C          9.85138        25.48336        -0.50580
C         11.11419        27.65681        -0.83009
C          9.88483        26.86433        -1.00565
C         11.07637        29.08456        -0.95836
C          9.86485        29.81243        -1.15672
C         11.04616        31.92643        -0.76477
C          9.82123        31.22609        -1.01633
C         11.02959        33.30257        -0.36853
C          9.81185        33.98648        -0.23552
C         11.09590        36.13541         0.42644
C          9.79942        35.38304         0.28628
C         11.08833        37.60721         0.07920
C          9.81440        38.27873         0.48609
C         13.51029         3.60185        -0.91964
C         12.27913         4.29248        -1.07665
C         13.52266         6.41714        -0.68455
C         12.29866         5.73703        -1.04183
C         13.55400         7.81561        -0.43366
C         12.31682         8.63839        -0.65189
C         13.52694        10.63382         0.22292
C         12.32446         9.95390         0.05460
C         13.51878        12.03616         0.55382
C         12.27824        12.74273         0.69488
C         13.51574        14.87149         0.99092
C         12.27649        14.16523         0.83355
C         13.50695        16.32356         1.15002
C         12.25961        17.03354         1.01538
C         13.49077        19.18250         1.26811
C         12.25429        18.47226         1.07659
C         13.45549        20.68678         1.50697
C         12.20928        21.33824         0.94883
C         13.47124        23.56140         0.76721
C         12.17255        22.81727         0.85352
C         13.48557        24.93786         0.20316
C         12.29206        25.57937        -0.11774
C         13.54305        27.69642        -0.53345
C         12.29880        26.98135        -0.50072
C         13.54035        29.09499        -0.79390
C         12.30103        29.80608        -0.87466
C         13.53997        31.92830        -0.83323
C         12.28790        31.22231        -0.83461
C         13.56161        33.31812        -0.59888
C         12.33398        33.95312        -0.09457
C         13.60947        36.22531        -0.09690
C         12.39800        35.43403         0.21633
C         13.58248        37.62514         0.34796
C         12.35680        38.24613         0.56450
C         15.95709         3.51761        -0.65938
C         14.73301         4.25117        -0.70372
C         15.93317         6.35024        -0.17194
C         14.73891         5.68262        -0.52599
C         15.97960         7.75781        -0.02596
C         14.75747         8.49298        -0.12899
C         15.99292        10.61240         0.25619
C         14.76807         9.91647         0.09129
C         15.97480        12.01739         0.47038
C         14.74993        12.73758         0.63597
C         15.96859        14.81354         1.32396
C         14.71775        14.14645         0.92904
C         15.96053        16.29761         1.61985
C         14.70107        17.04640         1.37451
C         15.96323        19.24173         1.67173
C         14.69294        18.48150         1.41056
C         16.00720        20.73618         1.45667
C         14.73346        21.43429         1.13137
C         15.97881        23.56556         0.85206
C         14.72709        22.76555         0.83326
C         15.95533        24.94510         0.31799
C         14.76220        25.61497         0.07560
C         15.98306        27.73588        -0.44903
C         14.77179        27.02150        -0.29795
C         15.98142        29.07678        -0.87303
C         14.76840        29.79456        -0.95414
C         15.97919        31.96486        -1.06974
C         14.76975        31.23509        -1.02562
C         16.00004        33.36750        -0.86868
C         14.76511        34.04790        -0.61267
C         16.00228        36.12831        -0.73807
C         14.76308        35.49056        -0.46365
C         16.03370        38.05811         0.21144
C         14.79264        38.29269         0.80051
C         18.41497         3.45496        -0.35982
C         17.16190         4.13170        -0.32863
C         18.47732         6.29307         0.17944
C         17.13601         5.54581         0.08095
C         18.46906         7.75749         0.06299
C         17.23223         8.46857         0.10954
C         18.49814        10.58601         0.20517
C         17.24155         9.88740         0.17400
C         18.53014        11.99837         0.38853
C         17.25179        12.74968         0.43888
C         18.53864        14.84369         1.24350
C         17.24820        14.18505         0.87160
C         18.53593        16.31985         1.25641
C         17.28674        17.01943         1.64279
C         18.52094        19.22299         1.20669
C         17.28856        18.52198         1.63873
C         18.51581        20.64843         1.03399
C         17.30111        21.38233         1.13551
C         18.57739        23.56501         0.69078
C         17.30266        22.84988         1.05311
C         18.44546        24.79970        -0.18546
C         17.25883        25.64979         0.23145
C         18.53530        27.70091        -0.67036
C         17.27762        27.09037        -0.17177
C         18.53525        29.06119        -1.01658
C         17.24424        29.74223        -1.23099
C         18.52119        31.96445        -1.18423
C         17.24003        31.26121        -1.34247
C         18.50487        33.37055        -0.97376
C         17.25585        34.06787        -0.82914
C         18.48141        36.22233        -0.43663
C         17.25921        35.48214        -0.67595
C         18.49175        37.54593         0.15191
C         17.34750        38.25220         0.66618
C         19.62264         4.13500        -0.28552
C         20.88258         6.27921        -0.34582
C         19.69199         5.54292        -0.15284
C         20.89593         7.66139        -0.25493
C         19.70368         8.42744        -0.06085
C         20.94030        10.59071         0.07645
C         19.72488         9.87045         0.05127
C         20.95669        11.95437         0.31127
C         19.75593        12.67581         0.48199
C         20.96686        14.94675         0.57601
C         19.81433        14.10402         0.91534
C         20.91586        16.29502         0.70086
C         19.71390        17.01876         1.08045
C         20.93374        19.18254         0.88125
C         19.72063        18.48555         1.07631
C         20.94834        20.56589         0.74639
C         19.76758        21.30930         0.78086
C         20.93105        23.39151        -0.21039
C         19.83817        22.77451         0.56341
C         20.90470        24.72991        -0.52814
C         19.74686        25.54364        -0.37783
C         20.95204        27.66900        -0.93206
C         19.75155        26.95108        -0.64789
C         20.95059        29.03072        -1.17163
C         19.74632        29.77986        -1.21685
C         20.93444        32.00107        -1.27739
C         19.73512        31.24254        -1.27237
C         20.92602        33.37886        -1.13278
C         19.72616        34.10350        -0.92944
C         20.93646        36.20075        -0.36669
C         19.71883        35.52536        -0.60432
C         20.94587        37.50607         0.12242
C         19.74908        38.14214         0.42762
O          2.26056        30.40822        -2.59141
O          6.11462        36.78023         1.67778
O         15.91550        15.29947         2.69736
O          9.31000        26.92437        -2.39991
O         17.45917        26.66508         1.24925
O         19.52148        23.60750         1.77348
O         17.76785         5.80034         1.37054
O         15.96906        37.46665        -1.08443
O         10.56776         9.74650         1.70159
O         17.21248        13.87924        -0.55877
O          2.02800        23.49718         2.10194
O         17.48507        17.76890         2.88821
O         10.45478        35.66351         1.62133
O          9.01474        21.19834         2.10012
O          3.55892        33.17427        -2.50516
O         19.32391        14.23492         2.30805
O          1.90476        33.34369         0.66723
O         15.92572        20.14020         2.81647
O         16.62335        23.50460         2.18243
O         12.59331        34.43361         1.27459
O          5.40018        16.64337         1.97743
O         12.72610        23.49285         2.05390
O          4.11032        14.62338        -0.72925
O         17.17976        30.40645        -2.54038
O          5.46911         8.53548        -2.28256
O          9.91540         4.97504        -2.45526
O          5.44547        10.87753        -1.49130
O          1.65338        10.98092         2.24430
O          7.99536        29.38364        -2.74984
O          6.18188        33.07491        -2.34746
O          8.06947        10.13792         2.05777
H          8.90345        10.10183         2.58446
O          8.32183        14.65670        -1.03551
H          9.08406        15.04448        -1.51412
O         12.35073         9.01059        -2.10287
H         12.40667         8.17284        -2.61233
O          7.42420        14.28540         2.50913
H          6.90830        15.07725         2.77573
O          4.64887        21.10398        -1.48422
H          5.41414        21.54026        -1.91670
O          8.59444        24.35404        -2.18454
H          8.77285        25.19698        -2.67768
O         18.06473        24.25279        -1.50152
H         18.27523        24.92290        -2.18605
O         13.31933        20.85706         2.94796
H         13.23819        21.82623         3.11519
O         11.11907        37.61155        -1.40454
H         11.25937        38.53773        -1.69505
O          3.72670         2.26543        -1.76521
H          3.69648         2.20085        -0.78894
H          1.25971         2.51649        -1.92086
H         -0.87989         3.56172        -1.13754
H         -0.90046         5.88534        -0.32097
H         -0.70754         7.38951         0.84874
H         -0.45820         9.46930         2.18462
H         -0.39717        12.33341         2.85118
H         -0.73312        14.77823         2.50707
H         -0.99694        16.72337         1.95066
H         -0.94538        19.15175         1.91538
H         -0.99535        21.00868         1.35302
H         -1.05323        23.38200         0.92765
H         -0.99779        25.28617         0.54951
H         -1.02613        27.61262        -0.18526
H         -1.04895        29.40843        -0.79692
H         -1.03084        31.81867        -0.90513
H         -1.04511        33.81231        -0.87171
H         -0.94583        36.19297        -0.33273
H          0.27927        38.21531         0.29328
H          3.63576         3.68026        -3.24959
H          2.41112        39.40970         0.66115
H          6.10604         2.58066        -1.78837
H          4.72356        39.53483         0.35789
H          8.35568         2.45009        -0.89493
H          7.50618        39.47107         0.20447
H         11.18520         2.47272        -0.60977
H          9.81276        39.37922         0.53346
H         13.50298         2.50291        -0.97734
H         12.32714        39.25387         1.00358
H         15.94131         2.44413        -0.90100
H         14.71591        38.94809         1.67999
H         18.41904         2.37125        -0.54735
H         17.53042        38.97987         1.47143
H         20.56062         3.57595        -0.41883
H         21.81690         5.73911        -0.55743
H         21.85544         8.17978        -0.38122
H         21.89714        10.06600        -0.04130
H         21.92220        12.47182         0.38825
H         21.87329        14.47877         0.16670
H         21.81319        16.86430         0.42755
H         21.89112        18.64952         0.85347
H         21.91128        21.07627         0.61210
H         21.82966        22.80302        -0.44154
H         21.81591        25.17526        -0.95436
H         21.91515        27.14139        -0.91974
H         21.91428        29.53293        -1.33299
H         21.90267        31.49438        -1.38835
H         21.89039        33.90336        -1.15145
H         21.89536        35.69132        -0.52537
H         21.90226        38.01117         0.31517
H         19.76738        39.14339         0.88155
