         210
 CSIRO Nanostructure Databank - Neutral Graphene Oxide Data Set
C         30.34283        31.76135        -0.35969
C         30.42051        33.01046        -0.44076
C         30.50934        36.13404        -0.75618
C         30.56779        37.37563        -0.94442
C         30.58241        40.44540        -0.97293
C         30.59549        41.67003        -0.78635
C         32.73768        28.95421        -0.16017
C         31.61503        29.51450        -0.20045
C         32.74340        31.64707        -0.19057
C         31.47499        30.92067        -0.24309
C         32.76144        33.08460        -0.25134
C         31.55557        33.84920        -0.39644
C         32.83150        35.97867        -0.39403
C         31.58913        35.25992        -0.50948
C         32.87398        37.41438        -0.53696
C         31.72392        38.17680        -0.84255
C         32.95815        40.33986        -0.43008
C         31.83149        39.62591        -1.20639
C         32.89433        41.78046        -0.15558
C         31.65543        42.51441        -0.33177
C         32.83788        44.43830         0.31777
C         31.76653        43.88555        -0.05742
C         35.38373        27.39235        -0.40054
C         35.26176        28.80721        -0.24302
C         34.03414        29.50614        -0.15085
C         35.25438        31.64690        -0.06474
C         33.99755        30.93855        -0.13130
C         35.22475        33.05896        -0.01926
C         34.00822        33.79731        -0.15670
C         35.28466        35.94677        -0.10282
C         34.02707        35.22805        -0.18534
C         35.27976        37.39940        -0.07947
C         34.11950        38.12445        -0.29053
C         35.30923        40.24209         0.29519
C         34.08118        39.58327        -0.12645
C         35.26035        41.68158         0.65630
C         34.05514        42.46113         0.31882
C         35.32112        44.55904         0.89945
C         34.09834        43.86680         0.56741
C         35.48445        45.95667         1.03797
C         37.80535        27.26787        -0.27491
C         36.49497        26.79921        -0.36158
C         37.79905        28.77913        -0.60199
C         36.50445        29.50792        -0.25328
C         37.78982        31.59883        -0.03728
C         36.51617        30.91389        -0.10493
C         37.78890        33.04700         0.24229
C         36.47316        33.80240         0.22690
C         37.78036        35.95166        -0.30932
C         36.48316        35.25646         0.01496
C         37.81344        37.39358         0.12254
C         36.50973        38.05853         0.50174
C         37.77807        40.29719         0.41552
C         36.49128        39.56049         0.38985
C         37.83087        41.71560         0.83327
C         36.54465        42.41651         0.99454
C         37.82194        44.56388         1.21525
C         36.57113        43.89031         1.00752
C         37.83955        45.98097         1.42684
C         36.56764        46.55540         1.26462
C         40.25696        24.51626         0.29296
C         39.19291        25.20361         0.19391
C         40.24278        27.32210         0.27310
C         38.97672        26.57247         0.00363
C         40.23510        28.78678         0.00948
C         39.06021        29.48183        -0.14840
C         40.28373        31.64800         0.10654
C         39.03153        30.93027        -0.07301
C         40.28491        33.07492         0.14170
C         39.05447        33.80417         0.09248
C         40.27778        35.91908         0.08511
C         39.04488        35.19373         0.03571
C         40.27833        37.34375         0.12903
C         39.00839        38.04817         0.20330
C         40.32783        40.19133         0.61792
C         39.05010        39.52961         0.28840
C         40.33451        41.63880         1.07627
C         39.02376        42.39312         0.93679
C         40.33581        44.49976         1.09802
C         39.07600        43.82787         1.14203
C         40.43570        45.91288         1.50991
C         39.06837        46.67605         1.77832
C         40.40171        48.66480         1.64596
C         39.28678        48.10975         1.63717
C         42.86460        24.52634         0.34728
C         41.54580        25.02511         0.35968
C         42.84229        27.28294         0.28557
C         41.55939        26.55616         0.44726
C         42.84421        28.74660         0.05389
C         41.53147        29.50108        -0.05474
C         42.76521        31.64854         0.31060
C         41.53481        30.96431         0.14915
C         42.75457        33.08027         0.33047
C         41.51893        33.78483         0.19039
C         42.74162        35.93522         0.19493
C         41.51270        35.21147         0.17206
C         42.73173        37.35513         0.19953
C         41.49638        38.05808         0.22852
C         42.81045        40.21921         0.67451
C         41.49505        39.49748         0.47053
C         42.73635        41.64422         0.16044
C         41.47068        42.39516         0.41652
C         42.75463        44.53383         0.46917
C         41.52087        43.84973         0.65588
C         42.79861        45.96546         0.67773
C         41.65920        46.68458         1.17071
C         42.91566        48.71487         0.97640
C         41.67167        48.12003         1.28368
C         43.92510        25.19272         0.34508
C         45.29412        27.35177         0.39122
C         44.07629        26.62170         0.32918
C         45.30534        28.79873         0.47450
C         44.07969        29.50940         0.33541
C         45.25540        31.64539         0.62265
C         44.04738        30.93263         0.41279
C         45.17092        33.11408         1.01712
C         43.96546        33.82406         0.45352
C         45.23259        35.95274         0.20610
C         43.97983        35.21658         0.31035
C         45.21111        37.36425        -0.01495
C         43.98555        38.08162         0.11260
C         45.18690        40.20199        -0.21081
C         44.00665        39.48369         0.12936
C         45.17741        41.66461        -0.28039
C         43.99983        42.38846        -0.02070
C         45.12523        44.54942        -0.28772
C         43.94383        43.82559         0.04329
C         45.15103        45.95612        -0.12020
C         44.02322        46.65516         0.36503
C         43.89997        48.04121         0.58119
C         47.66283        27.43891         0.67986
C         46.59155        26.81431         0.50398
C         47.79576        28.84775         0.77841
C         46.53363        29.52244         0.65302
C         47.74665        31.66463         0.85660
C         46.51406        30.95918         0.71982
C         47.75458        33.15009         0.82263
C         46.47280        33.89861         0.81947
C         47.68965        35.97513         0.00405
C         46.46180        35.28714         0.28662
C         47.66207        37.35855        -0.33156
C         46.41783        38.07439        -0.28912
C         47.53080        40.16560        -1.15630
C         46.36443        39.48332        -0.49429
C         47.58410        41.67099        -0.93784
C         46.39503        42.35090        -0.65446
C         47.62722        44.57632        -1.12512
C         46.29534        43.81372        -0.82976
C         47.52684        45.97523        -0.69497
C         46.42152        46.50343        -0.47790
C         50.30156        29.04100         1.10655
C         48.99939        29.55915         0.96374
C         50.25115        31.72831         1.06487
C         49.00735        31.00541         0.97328
C         50.19224        33.26314         1.07783
C         49.00388        33.76958         0.23193
C         50.15338        35.96532        -0.12082
C         48.95348        35.28612         0.09725
C         50.14814        37.34834        -0.57604
C         48.88551        38.07372        -0.65577
C         50.03096        40.16356        -1.43230
C         48.84497        39.44071        -0.95171
C         50.08048        41.65242        -1.32719
C         48.84472        42.36774        -1.14752
C         50.15571        44.31223        -1.09369
C         48.85845        43.80257        -1.09505
C         51.39584        29.64200         1.24640
C         52.66924        31.91130         1.22968
C         51.50247        31.05596         1.19717
C         52.56823        33.10063         0.83669
C         51.47922        33.95585         0.58541
C         52.53691        36.05304        -0.27627
C         51.42548        35.23230         0.07427
C         52.51509        37.24283        -0.64209
C         51.34518        38.00108        -0.93952
C         52.51415        40.22832        -1.43244
C         51.36292        39.33334        -1.51218
C         52.46062        41.46212        -1.55720
C         51.34350        42.34013        -1.38250
C         51.27031        43.74021        -1.24635
O         37.11410        33.39238         1.51244
O         42.27034        29.09461        -1.28206
O         35.68673        41.85625         2.06591
O         40.79401        27.04855         1.61445
O         50.56374        39.57374        -2.68136
O         39.85826        46.12295         2.84221
O         47.31189        33.81293         2.04762
O         38.44167        40.13847        -0.92801
O         46.71502        44.23910        -2.17834
O         41.78601        41.90754        -0.92445
O         43.06100        40.34419         2.10662
H         43.07994        39.44442         2.49436
O         37.87589        28.84434        -2.06322
H         37.06307        28.42854        -2.42359
O         32.17742        39.71075        -2.59394
H         31.53091        39.18443        -3.10915
O         49.98864        33.69510         2.43076
H         50.70093        33.32000         2.98929
O         37.78226        35.99819        -1.79346
H         38.52354        36.57878        -2.07184
O         36.41582        37.80559         1.95757
H         35.57640        38.20006         2.27875
O         47.27279        40.00739        -2.60178
H         48.06656        40.32168        -3.08694
O         44.90284        33.07640         2.45446
H         45.77907        33.17887         2.90053
O         49.12604        33.23990        -1.10682
H         49.91041        33.64151        -1.53682
O         40.62134        41.65076         2.50264
H         39.84129        41.30616         2.98504
