         638
 CSIRO Nanostructure Databank - Neutral Graphene Oxide Data Set
C         22.92674        69.78938         0.81914
C         22.90167        71.16070         0.74291
C         21.66694        71.88894         0.59198
C         22.91798        73.95170         0.19790
C         21.67471        73.23334         0.35483
C         25.55189        65.63244         1.32265
C         25.47987        67.00461         1.18896
C         24.22817        67.72112         1.14610
C         25.38311        69.77741         0.29836
C         24.16697        69.05909         0.83852
C         25.44209        71.24663         0.67641
C         24.15760        71.96195         1.02704
C         25.41549        74.07334         0.14009
C         24.11725        73.35931         0.43901
C         27.85914        61.37878         1.08228
C         28.02582        62.76205         1.28954
C         26.82322        63.52786         1.23178
C         28.05282        65.62480         1.34666
C         26.80456        64.91487         1.31041
C         27.99257        67.11950         1.50625
C         26.71269        67.77043         1.02897
C         27.92369        69.79225         0.17816
C         26.67785        69.06852         0.62045
C         27.88947        71.29043         0.42537
C         26.61638        71.94620         0.67040
C         27.89754        74.14125         0.54226
C         26.60442        73.45223         0.90901
C         30.40506        57.15890         0.52487
C         30.36537        58.51131         0.75452
C         29.09399        59.19719         0.66632
C         30.75201        61.43102         1.58825
C         28.85384        60.38827         1.32007
C         30.54509        62.85461         1.43307
C         29.30728        63.48696         1.40857
C         30.52096        65.72763         1.31655
C         29.27490        64.95643         1.37288
C         30.50026        67.13047         1.15063
C         29.23425        67.82309         1.03045
C         30.42105        69.97625         0.77114
C         29.18602        69.13754         0.67377
C         30.31118        71.27789         0.02153
C         29.04390        72.01126         0.25695
C         30.31686        74.16025         0.03997
C         29.06645        73.47070         0.27001
C         32.89727        52.87631         0.70919
C         32.87589        54.28789         0.57176
C         31.65589        55.01307         0.62006
C         32.86429        57.11245         0.30822
C         31.64470        56.40519         0.49192
C         32.76437        58.60189         0.08981
C         31.73162        59.20020         1.07513
C         32.80468        61.46710         0.21497
C         31.75477        60.71481         1.00833
C         32.96040        62.88744         0.71330
C         31.85713        63.58273         1.47331
C         32.98428        65.71906         0.97917
C         31.78577        65.05139         1.20571
C         33.03900        67.20621         1.13936
C         31.71419        67.86768         0.88082
C         32.90528        69.95016         0.26643
C         31.69619        69.21384         0.56949
C         32.86523        71.32749        -0.00291
C         31.57523        72.02998        -0.20177
C         32.77735        74.19011        -0.20744
C         31.53320        73.50974        -0.15268
C         35.34569        48.56717         0.65105
C         35.26561        49.96504         0.45790
C         34.13423        50.71866         0.75015
C         35.31206        52.87344         0.37971
C         34.10067        52.15832         0.60716
C         35.33635        54.28274         0.28644
C         34.10135        55.00082         0.37257
C         35.31983        57.14289         0.01164
C         34.08713        56.42275         0.24523
C         35.29228        58.54958        -0.11565
C         34.10223        59.30949         0.06036
C         35.32980        61.45315         0.05082
C         34.12235        60.71812         0.12088
C         35.36930        62.85834         0.24300
C         34.14676        63.57229         0.55299
C         35.39467        65.70686         0.41432
C         34.19929        65.01323         0.71577
C         35.39955        67.14975         0.26094
C         34.20691        67.86540         0.45918
C         35.34994        69.94419        -0.19660
C         34.16067        69.25126         0.19048
C         35.30222        71.37104        -0.30206
C         34.06768        72.05469        -0.19693
C         35.23668        74.20514        -0.24260
C         34.00855        73.50634        -0.25940
C         37.74759        44.21706         0.48860
C         37.80671        45.72638         0.57186
C         36.62982        46.43542         0.68513
C         37.77576        48.57496         0.27063
C         36.57191        47.86965         0.52970
C         37.75112        49.94398        -0.09734
C         36.41357        50.66050        -0.24377
C         37.61399        52.87026        -0.53354
C         36.59424        52.08127         0.31111
C         37.87015        54.26070         0.08537
C         36.56013        55.02275         0.06655
C         37.81137        57.12272        -0.34574
C         36.55680        56.40913        -0.09510
C         37.82118        58.54243        -0.43950
C         36.53596        59.24838        -0.48179
C         37.86201        61.42565        -0.20232
C         36.56654        60.77751        -0.37370
C         37.88392        62.81615         0.38441
C         36.59215        63.56526         0.22614
C         37.82450        65.69131        -0.08710
C         36.60851        64.97681         0.21884
C         37.77531        67.05427        -0.36473
C         36.57912        67.82547        -0.19345
C         37.77141        69.96226        -0.84387
C         36.57043        69.24124        -0.40277
C         37.71951        71.42449        -0.83468
C         36.52590        72.08940        -0.51974
C         37.67208        74.24902        -0.08824
C         36.47168        73.54468        -0.33677
C         40.41554        40.09428         1.27671
C         40.37294        41.45217         1.04232
C         39.12215        42.19991         1.02978
C         40.30029        44.22423         0.18413
C         39.06856        43.51727         0.70285
C         40.27782        45.73040         0.37886
C         39.06928        46.40747         0.45406
C         40.27555        48.54228        -0.10008
C         39.09020        47.91670         0.58708
C         40.18615        49.88868        -0.76229
C         38.91345        50.62886        -0.42341
C         40.15267        52.78906        -1.01832
C         38.87108        52.05258        -0.80570
C         40.14197        54.27290        -0.95096
C         39.03132        54.97295        -0.57670
C         40.23116        57.13759        -0.81650
C         39.01398        56.42611        -0.58095
C         40.26484        58.56593        -0.69037
C         39.02733        59.26886        -0.55385
C         40.31898        61.38437        -0.31507
C         39.05086        60.71591        -0.40580
C         40.35218        62.81920         0.03277
C         39.09706        63.59748        -0.02984
C         40.35218        65.71941        -0.27801
C         39.09086        64.95982        -0.17827
C         40.26596        67.12705        -0.49229
C         38.95979        67.67063        -1.05186
C         40.14657        69.70061        -1.67515
C         38.90680        69.18249        -1.15168
C         40.16918        71.87637        -1.55243
C         38.81418        72.42850        -1.27886
C         40.12632        74.11751         0.07622
C         38.89873        73.62167        -0.35682
C         43.01826        35.96879         2.18824
C         42.96123        37.30116         1.70530
C         41.71455        38.01191         1.62673
C         42.89090        40.11621         1.14509
C         41.66003        39.36904         1.33314
C         42.85913        41.49109         0.99114
C         41.60829        42.21075         0.89882
C         42.81321        44.40080         0.88810
C         41.56871        43.57597         0.66545
C         42.75496        45.80034         0.32555
C         41.51639        46.45862         0.24597
C         42.72675        48.57002        -0.35097
C         41.48504        47.87043        -0.08221
C         42.71942        49.98908        -0.54568
C         41.45849        50.70959        -0.62451
C         42.64991        52.86561        -0.87851
C         41.44005        52.07982        -0.81717
C         42.64406        54.21612        -1.16696
C         41.36813        54.96403        -1.49331
C         42.64428        57.10063        -1.20255
C         41.42469        56.42309        -1.10074
C         42.69875        58.53092        -1.02249
C         41.50666        59.26290        -0.74420
C         42.78438        61.40183        -0.47353
C         41.54155        60.69918        -0.50475
C         42.88706        62.83629        -0.36502
C         41.64823        63.58281         0.00077
C         42.88061        65.78765         0.06641
C         41.58177        65.04828        -0.17881
C         42.84040        67.25991        -0.39089
C         41.45301        67.97275        -0.52572
C         42.61183        70.03800        -1.57086
C         41.37743        69.23883        -1.29256
C         42.65865        71.60697        -1.48038
C         41.35762        72.25783        -1.01931
C         42.57154        74.01754         0.21879
C         41.36946        73.46943        -0.20078
C         45.58974        33.53887         3.45250
C         44.33924        34.11752         3.18163
C         45.47488        35.82096         1.81668
C         44.23525        35.28913         2.40295
C         45.42971        37.27586         1.28800
C         44.16322        38.00230         1.40188
C         45.37741        40.07437         0.92669
C         44.16275        39.40045         1.16492
C         45.34595        41.47230         0.37413
C         44.16092        42.25931         0.95786
C         45.28501        44.41498         0.33907
C         44.00039        43.62933         0.28437
C         45.24055        45.78871         0.23670
C         43.96969        46.48591         0.11432
C         45.19205        48.58180        -0.41206
C         43.95833        47.87858        -0.22917
C         45.17272        49.98096        -0.67475
C         43.93291        50.68579        -0.67188
C         45.13569        52.85318        -1.20002
C         43.95659        52.19121        -0.54262
C         45.13232        54.20649        -1.42393
C         43.87916        54.95289        -1.32927
C         45.07318        57.08858        -1.77084
C         43.85212        56.34054        -1.42937
C         45.13269        58.52256        -1.45762
C         43.94403        59.21020        -1.11165
C         45.29751        61.37223        -0.94148
C         44.01459        60.62646        -0.69337
C         45.43792        62.88456        -0.70648
C         44.07017        63.54462        -0.56039
C         45.26334        65.75127        -1.10331
C         44.12308        65.02345        -0.43023
C         45.14848        67.20761        -1.36115
C         43.96061        67.87217        -1.09236
C         45.15829        70.05182        -1.17567
C         43.90667        69.31601        -1.43235
C         45.10225        71.40662        -0.73573
C         43.86325        72.09744        -0.67170
C         45.01894        73.95616         0.45227
C         43.82660        73.35912        -0.01738
C         46.78487        34.11502         3.02595
C         47.95380        35.99335         1.90576
C         46.78573        35.30371         2.24658
C         47.93613        37.34548         1.42988
C         46.68790        38.01755         1.26269
C         47.85401        40.16347         0.99970
C         46.64117        39.41618         1.05990
C         47.79680        41.59929         0.89179
C         46.61811        42.24996         0.62643
C         47.66924        44.54742         0.99430
C         46.62487        43.70994         0.23002
C         47.72068        45.91172         0.34234
C         46.48553        46.53961         0.10901
C         47.67312        48.60652        -0.46052
C         46.44731        47.90713        -0.27395
C         47.63097        50.00339        -0.78253
C         46.40682        50.66768        -0.89210
C         47.60919        52.85499        -0.92041
C         46.40755        52.07725        -1.44328
C         47.59654        54.28507        -1.42075
C         46.40851        54.90985        -1.64387
C         47.64530        57.13868        -1.84199
C         46.38992        56.36217        -1.93242
C         47.60050        58.55218        -1.93425
C         46.36237        59.18665        -1.63409
C         47.47451        61.35799        -2.32586
C         46.30014        60.64083        -1.77096
C         47.24906        62.80883        -2.41620
C         46.33050        63.55049        -1.74729
C         47.62338        65.84501        -2.18218
C         46.32385        65.02820        -1.88992
C         47.61966        67.26116        -1.70680
C         46.37202        67.93264        -1.52676
C         47.58751        69.98132        -0.84555
C         46.36642        69.33895        -1.21988
C         47.54881        71.31361        -0.34329
C         46.31060        72.01563        -0.26735
C         47.48828        73.93792         0.72243
C         46.26858        73.32503         0.30347
C         49.13195        38.08331         1.24166
C         50.31697        40.21945         0.79965
C         49.11663        39.48330         1.01782
C         50.34250        41.64117         0.78616
C         49.06593        42.35560         1.07767
C         50.25916        44.57392         0.68579
C         49.02809        43.85553         1.09846
C         50.20394        45.82502         0.14180
C         48.93810        46.55416         0.03652
C         50.14910        48.62634        -0.64932
C         48.91709        47.91516        -0.37080
C         50.11417        49.97307        -0.98534
C         48.88176        50.71141        -1.01213
C         50.13085        52.80806        -1.34354
C         48.88894        52.09377        -1.18930
C         50.08146        54.24399        -1.74403
C         48.89297        55.04847        -1.28187
C         50.07190        57.17565        -2.01278
C         48.88151        56.46430        -1.80524
C         50.06292        58.60164        -2.11707
C         48.82498        59.31519        -2.10572
C         50.04937        61.47692        -2.24313
C         48.82425        60.73279        -2.28945
C         50.12879        62.94558        -2.24234
C         49.07355        63.81908        -2.63056
C         50.11807        65.78823        -1.74376
C         48.94556        65.15500        -2.22539
C         50.12886        67.30921        -1.81705
C         48.81359        67.93213        -1.43315
C         50.01133        69.87998        -0.42593
C         48.81132        69.26822        -0.91626
C         49.95979        71.17226         0.13171
C         48.74869        71.90788         0.14777
C         49.94057        73.92352         0.97972
C         48.70434        73.26488         0.64679
C         51.50498        42.37722         0.63803
C         52.76710        44.55469         0.41582
C         51.56210        43.85178         0.97233
C         52.72101        45.79689        -0.15209
C         51.40567        46.40698        -0.58314
C         52.61525        48.60158        -0.67745
C         51.42776        47.92075        -0.59038
C         52.60216        50.11513        -0.65121
C         51.39458        50.65523        -1.40938
C         52.60927        52.94319        -1.18319
C         51.33399        52.15724        -1.35098
C         52.62158        54.29270        -1.86134
C         51.33581        54.95928        -2.13628
C         52.59166        57.18292        -2.04471
C         51.33497        56.45974        -2.44293
C         52.54959        58.59291        -1.97105
C         51.29965        59.32661        -2.08306
C         52.51735        61.46009        -1.76741
C         51.28198        60.75046        -2.03969
C         52.51463        62.85876        -1.55956
C         51.29321        63.60929        -1.74740
C         52.46824        65.70853        -0.90995
C         51.28074        65.02624        -1.55645
C         52.60893        67.16190        -1.37422
C         51.32284        67.92525        -1.13562
C         52.50800        69.69415         0.16077
C         51.26422        69.13399        -0.50868
C         52.46876        71.19292         0.38350
C         51.15249        71.74285         0.86906
C         52.38464        73.91383         1.21285
C         51.14419        73.25083         0.96907
C         53.92273        46.53364        -0.41463
C         55.08898        48.63994        -0.92822
C         53.89765        47.90718        -0.67776
C         55.08853        50.02670        -1.19848
C         53.86963        50.77372        -1.14619
C         55.07369        52.84416        -1.68218
C         53.86276        52.13868        -1.41489
C         55.06581        54.27627        -1.80049
C         53.81022        54.99758        -1.90648
C         55.03138        57.16096        -1.84869
C         53.81056        56.46064        -1.98409
C         55.01063        58.59060        -1.73850
C         53.77131        59.30724        -1.77990
C         54.97608        61.41377        -1.38865
C         53.75549        60.72765        -1.65107
C         54.96945        62.82649        -1.19367
C         53.74437        63.55560        -1.25882
C         54.98553        65.64440        -0.83582
C         53.76962        64.95679        -1.05152
C         54.98532        67.10236        -0.62912
C         53.82591        67.80852        -0.77732
C         54.99996        69.94177        -0.08799
C         53.75461        69.29796        -0.64069
C         54.92996        71.25835         0.30962
C         53.63776        71.90309         0.52257
C         54.82622        73.90672         1.45589
C         53.61031        73.27447         1.04704
C         56.29070        50.73439        -1.50449
C         57.59233        52.80118        -2.04572
C         56.29393        52.10213        -1.72461
C         57.54389        54.29660        -1.83175
C         56.28671        54.99295        -1.82105
C         57.50051        57.11832        -1.69614
C         56.28261        56.42988        -1.78784
C         57.50379        58.58614        -1.70515
C         56.22524        59.30807        -1.57484
C         57.42843        61.38363        -0.94326
C         56.22035        60.69640        -1.33370
C         57.39931        62.76338        -0.69869
C         56.18690        63.51336        -0.90676
C         57.49077        65.60696        -0.55827
C         56.19631        64.91767        -0.77445
C         57.50274        67.08256        -0.29849
C         56.21757        67.81842        -0.30592
C         57.53008        69.90344         0.16381
C         56.22678        69.17539        -0.07928
C         57.29365        71.11755         1.06497
C         56.20908        72.04992         0.48841
C         57.27269        73.89892         1.77638
C         56.06836        73.30117         1.32594
C         58.72631        54.99210        -1.71009
C         59.93458        57.08798        -1.23327
C         58.74484        56.41829        -1.57835
C         59.96237        58.47441        -0.93494
C         58.78695        59.29247        -1.30111
C         59.74611        61.20590        -0.09067
C         58.67357        60.65355        -0.75064
C         59.62587        62.59401         0.50171
C         58.56449        63.43160        -0.17025
C         59.78441        65.47104         0.52167
C         58.62700        64.80166        -0.06270
C         59.78133        66.88002         0.77159
C         58.65139        67.68082         0.42798
C         59.78159        69.67811         1.28811
C         58.64014        69.03864         0.71371
C         59.76018        71.11599         1.51874
C         58.57891        71.83922         1.38083
C         59.74505        73.89621         2.01888
C         58.51014        73.22832         1.72262
C         61.04160        59.09164        -0.31178
C         62.11320        61.08031         0.65159
C         60.99721        60.47224         0.09479
C         62.06455        62.48679         1.19280
C         61.00116        63.28295         0.41609
C         62.10170        65.36329         1.32118
C         60.93996        64.73636         0.81055
C         62.07874        66.72600         1.64979
C         60.92716        67.50512         1.35508
C         62.15593        69.58924         2.01539
C         60.93211        68.92389         1.57603
C         62.13678        71.03158         2.16511
C         60.97834        71.78001         1.92265
C         62.20778        74.04328         2.16691
C         60.94238        73.22168         2.07022
C         63.36953        63.24501         1.21071
C         64.56726        65.34723         1.67723
C         63.35115        64.59570         1.40191
C         64.54333        66.62556         2.12166
C         63.23171        67.34116         2.40453
C         64.56701        69.50712         2.78675
C         63.30657        68.84787         2.25748
C         64.64248        70.97667         2.47307
C         63.38132        71.72036         2.57798
C         64.74414        73.83804         2.20824
C         63.44616        73.23927         2.51736
C         65.82400        67.26663         2.60606
C         66.98979        69.42389         2.18067
C         65.83518        68.76557         2.44228
C         67.06834        70.87033         2.11918
C         65.84486        71.63216         2.28963
C         67.17002        73.69504         1.85010
C         65.89579        73.08135         2.13256
C         68.25778        71.51965         1.85364
C         68.30591        72.93999         1.73328
O         43.30339        69.56523        -2.78895
O         41.09057        63.10057         1.29613
O         46.61179        65.56984        -3.19714
O         48.02829        63.35671        -3.44179
O         36.40337        60.09545        -1.67239
O         29.78931        60.72352         2.32754
O         57.86202        66.56122        -1.63603
O         58.40703        59.18003        -2.71085
O         45.38714        36.11386         0.39287
O         63.30598        72.55559         3.80792
O         42.29506        68.10913         0.66235
O         30.83005        71.38006        -1.32572
O         49.13948        43.10110         2.36821
O         45.31522        65.46773         0.33583
O         46.39912        60.85688        -3.24021
O         45.59590        56.74223        -3.10677
O         45.09036        60.73366         0.35777
O         39.37642        52.27999        -2.19568
O         40.11543        70.83929        -2.49970
O         50.44974        54.31010        -3.15772
O         52.85798        67.14630        -2.81573
H         53.20119        68.04278        -3.04198
O         32.10439        58.79575         2.40870
H         31.47443        59.22445         3.02756
O         62.41458        74.71471         0.90844
H         62.24014        74.08193         0.18203
O         47.00635        43.73267        -1.18091
H         46.35313        43.17813        -1.66324
O         51.32243        56.58305        -3.90107
H         50.72499        55.87288        -4.23472
O         61.66680        62.39587         2.60846
H         62.38244        61.92660         3.08634
O         47.47133        52.93243         0.53075
H         48.19999        53.51842         0.84823
O         37.32036        43.89905        -0.85913
H         37.31092        42.92346        -0.95089
O         36.05867        50.65736        -1.64354
H         36.28930        51.54057        -2.02645
O         38.28366        54.13543         1.48305
H         38.39955        55.04179         1.83930
O         51.74671        43.89600         2.43180
H         50.91271        43.53325         2.82239
O         30.46243        70.41799         2.19017
H         30.53999        69.61017         2.74316
O         46.13837        63.02668         0.55573
H         45.67769        62.44164         1.19970
O         33.27795        67.41602         2.59278
H         33.46494        68.37112         2.71923
O         50.26150        67.59276        -3.24953
H         51.17833        67.31265        -3.50081
O         61.40713        63.29436        -0.97592
H         61.57739        62.36928        -1.25583
O         40.08308        49.60289        -2.20548
H         39.88834        50.46932        -2.64112
O         24.16447        72.11995         2.48795
H         23.46624        72.76944         2.71563
O         45.19545        41.34058        -1.08754
H         45.74761        40.58105        -1.37272
O         51.00833        71.24783         2.26166
H         51.65008        71.74850         2.81025
O         42.89597        72.09222        -2.82305
H         43.29865        71.34376        -3.32769
O         37.07114        51.85180         1.65253
H         37.34545        52.71458         2.04374
O         47.17208        44.76172         2.33185
H         47.60638        44.09077         2.90894
O         59.15550        62.46750         1.86726
H         59.92580        62.22310         2.43605
O         32.29707        61.58375        -1.15785
H         32.15168        60.65463        -1.47458
O         44.53728        42.49679         2.35012
H         44.60818        41.62386         2.79269
O         32.28508        63.47743         2.89701
H         31.86740        64.21830         3.38688
O         28.00060        67.33812         2.96783
H         27.81192        68.28783         3.12534
O         38.90137        67.18949        -2.45175
H         38.04730        67.48717        -2.83153
O         39.31019        48.18723         2.03203
H         40.12645        47.71030         2.29729
O         32.18215        58.80618        -1.24831
H         32.78633        58.39074        -1.90021
O         52.43678        50.51668         0.75120
H         53.13853        50.07259         1.27289
O         46.58329        51.96463        -2.88360
H         45.78453        51.53927        -3.25907
O         49.10680        55.18063         0.17603
H         48.48191        55.85877         0.51128
O         43.63354        43.46959        -1.10446
H         44.14498        42.71968        -1.48779
O         52.62797        53.26608         0.26295
H         52.54193        52.39600         0.73235
O         44.17298        52.43549         0.90310
H         45.12745        52.28201         1.08513
O         56.58359        72.55070        -0.82029
H         57.06144        71.83010        -1.30022
O         64.45035        69.42551         4.27132
H         63.94703        70.21709         4.56648
O         26.35768        73.73737         2.31100
H         27.01088        73.23679         2.84195
O         38.34127        72.94102        -2.56659
H         38.59970        72.27898        -3.24492
O         53.58275        69.81346        -2.00513
H         53.67199        70.79075        -1.96814
O         40.24966        44.02845        -1.27338
H         39.33474        44.25820        -1.55730
O         25.22620        69.76638        -1.17543
H         24.98821        68.85020        -1.43492
O         27.96633        69.62971        -1.27935
H         27.06597        69.86789        -1.61242
O         52.17999        65.77961         0.51755
H         52.13204        64.86488         0.86542
O         42.94226        44.60337         2.31953
H         43.50356        43.87829         2.68985
O         51.23206        45.99995        -1.98199
H         50.44872        46.47409        -2.33322
O         66.96815        66.66556         2.00069
H         66.90943        66.79645         1.03242
O         52.60885        69.10158         1.47857
H         51.89075        69.50274         2.02486
O         43.00144        65.80703         1.51176
H         43.95208        65.96132         1.71435
O         57.93650        52.54315        -3.42554
H         57.23393        52.92684        -3.98984
O         58.02073        70.35859        -1.13861
H         58.12470        69.56624        -1.70887
O         56.78841        70.58081         2.31462
H         56.70060        71.32131         2.95049
O         51.61222        50.31898        -2.81594
H         50.89557        50.73680        -3.33898
O         41.25791        54.93888        -2.95679
H         40.49550        55.50109        -3.20923
O         25.66738        74.00572        -1.27155
H         25.72438        73.06179        -1.52910
O         36.99580        53.14384        -1.81808
H         37.73026        53.15075        -2.48082
O         38.03553        62.62611         1.84564
H         38.99631        62.65624         2.05533
O         62.95406        67.12161         3.83408
H         63.49010        67.78870         4.33163
H         22.88035        74.98748        -0.17123
H         25.33039        75.15627         0.40592
H         27.89839        75.24151         0.58296
H         30.30676        75.26046         0.08259
H         32.78524        75.29051        -0.18144
H         35.22719        75.30138        -0.14909
H         37.63740        75.25088         0.36505
H         40.14332        75.04092         0.67547
H         42.57085        74.96755         0.77335
H         44.96587        74.94299         0.93605
H         47.46060        74.96572         1.11450
H         49.92214        75.00645         1.17828
H         52.36578        74.97133         1.51923
H         54.75415        74.88536         1.95703
H         57.24181        74.92103         2.18529
H         59.73413        74.98754         2.15908
H         62.07666        74.84916         2.93497
H         64.77098        74.90498         1.94163
H         67.21149        74.78818         1.73981
H         21.98090        69.22406         0.84714
H         20.71965        71.32906         0.60133
H         20.73078        73.77468         0.20156
H         24.62270        65.04539         1.38257
H         23.30730        67.18279         1.41947
H         26.88546        61.04712         0.68719
H         25.86797        62.98584         1.16008
H         29.46208        56.60027         0.41745
H         28.33878        58.79168        -0.02460
H         31.95186        52.33845         0.87406
H         30.71127        54.46905         0.76676
H         34.45528        48.01689         0.99495
H         33.22736        50.21575         1.12244
H         36.97801        43.82185         1.21311
H         35.68208        45.88881         0.80507
H         39.47855        39.53904         1.43744
H         38.19681        41.66096         1.29449
H         42.08529        35.49918         2.53570
H         40.78125        37.46141         1.81859
H         45.62783        32.62511         4.06247
H         43.42827        33.66388         3.59777
H         47.74478        33.66565         3.31838
H         48.92724        35.54530         2.15725
H         50.09922        37.56399         1.31584
H         51.26685        39.67263         0.70314
H         52.45819        41.84692         0.48711
H         53.74677        44.11895         0.67041
H         54.89198        46.02250        -0.30711
H         56.04456        48.09499        -0.95641
H         57.23919        50.17795        -1.54333
H         58.42011        52.35942        -1.43346
H         59.68129        54.44606        -1.69375
H         60.84455        56.49245        -1.06473
H         61.94325        58.50414        -0.08142
H         63.03631        60.49211         0.77647
H         64.32049        62.69080         1.26021
H         65.53379        64.82518         1.59058
H         65.89956        67.05770         3.71190
H         67.90837        68.84347         2.00023
H         69.17963        70.93608         1.71783
H         69.27062        73.42378         1.52546
