         404
 CSIRO Nanostructure Databank - Neutral Graphene Oxide Data Set
C          1.33813         3.24144         0.20793
C          0.26705         3.63380        -0.56384
C          1.46151         5.65824        -1.14959
C          0.35244         4.83688        -1.29561
C          1.43038         7.98465        -1.32416
C          0.20860         8.67000        -1.45504
C          1.24141        10.61056        -0.43880
C          0.10156         9.95582        -0.96210
C          1.19221        12.03303        -0.16070
C         -0.02025        12.76879        -0.17869
C          1.15995        14.88599         0.14028
C         -0.03798        14.14274        -0.03429
C          1.16155        16.35214         0.12571
C         -0.04744        17.09228        -0.04230
C          1.16354        19.21722        -0.14286
C         -0.04706        18.46211        -0.16441
C          1.17714        20.63753        -0.26759
C         -0.00721        21.38740        -0.63019
C          1.14742        23.49139        -0.14593
C         -0.02641        22.74287        -0.64716
C          1.06409        24.97763         0.15773
C         -0.10861        25.73871        -0.35044
C          1.02780        27.91947         0.14374
C         -0.07815        27.07144        -0.47052
C          1.07730        29.33252        -0.40237
C         -0.12832        30.04381        -0.35878
C          1.07717        32.12259        -0.63184
C         -0.12927        31.42454        -0.48371
C          1.10472        33.55145        -0.21680
C         -0.12559        34.34652        -0.06710
C          1.18221        36.32852         0.52115
C         -0.07742        35.63161         0.36304
C          1.22519        37.64630         1.12008
C          3.67389         3.48718         0.86528
C          2.51150         4.04932         0.30501
C          3.70765         6.21072        -0.06657
C          2.55936         5.35933        -0.29242
C          3.83233         7.68284        -0.57729
C          2.53684         8.50230        -0.64853
C          3.66907        10.61149         0.03080
C          2.46836         9.88855        -0.30385
C          3.64043        12.00849         0.17033
C          2.39887        12.74019         0.08148
C          3.62728        14.86376         0.49531
C          2.36567        14.15682         0.23484
C          3.63487        16.38717         0.44991
C          2.36457        17.08118         0.18230
C          3.63614        19.20941         0.04187
C          2.39322        18.50128         0.03397
C          3.64291        20.62277        -0.07106
C          2.41049        21.34495        -0.16606
C          3.65955        23.43735        -0.46735
C          2.43961        22.77100        -0.27243
C          3.71469        24.83996        -1.02506
C          2.25678        25.81502         0.51094
C          3.54197        27.78929        -0.41313
C          2.39607        27.16448        -0.00967
C          3.52935        29.19219        -0.98045
C          2.28481        30.00211        -0.68084
C          3.56164        32.13518        -1.15336
C          2.29204        31.40973        -0.80991
C          3.59889        33.68055        -0.96826
C          2.40629        34.31056        -0.28007
C          3.58803        36.53677         0.06637
C          2.34496        35.75359         0.03597
C          3.65991        37.72857         0.93771
C          2.40726        38.28315         1.37937
C          6.11029         3.50366         1.04526
C          4.87719         4.20112         0.84485
C          6.06232         6.36139         0.78456
C          4.83793         5.60182         0.48846
C          6.14414         7.79442         0.47588
C          4.94442         8.47791         0.10900
C          6.10769        10.62707         0.49206
C          4.91008         9.88565         0.19490
C          6.13007        12.01793         0.43224
C          4.88288        12.73811         0.29596
C          6.13999        14.85321         0.13135
C          4.88074        14.12124         0.32217
C          6.14564        16.35360         0.05449
C          4.89122        17.10895         0.20597
C          6.15051        19.20940        -0.01924
C          4.89221        18.48888         0.08418
C          6.12347        20.59759        -0.12204
C          4.88443        21.33557        -0.13548
C          6.15905        23.50839        -0.55441
C          4.87744        22.73133        -0.34119
C          6.03906        24.95550        -0.11282
C          4.84999        25.68913        -0.55979
C          6.06540        27.83777        -0.35288
C          4.82488        27.07617        -0.44676
C          6.05618        29.26577        -0.57405
C          4.81998        29.95350        -0.74135
C          6.08602        31.87707        -1.38262
C          4.82065        31.31740        -1.10104
C          6.09339        33.98584        -1.21589
C          4.86367        34.43390        -0.77317
C          6.14212        36.38303         0.18921
C          4.86770        35.81087        -0.25361
C          6.13568        37.63481         0.90141
C          4.89227        38.25630         1.26928
C          8.58444         3.45742         0.87787
C          7.35585         4.13786         0.97366
C          8.62257         6.33341         0.84380
C          7.36210         5.61145         1.04928
C          8.60195         7.74783         0.80079
C          7.35456         8.45404         0.72048
C          8.62432        10.63918         0.75023
C          7.33121         9.92113         1.01169
C          8.61834        12.05282         0.71414
C          7.37569        12.75779         0.57453
C          8.61321        14.89894         0.50430
C          7.40171        14.15389         0.42243
C          8.62385        16.34778         0.38905
C          7.42447        17.06685         0.22133
C          8.64860        19.16215         0.06774
C          7.41285        18.48255         0.08661
C          8.67431        20.59685        -0.21476
C          7.37582        21.35440        -0.30103
C          8.61260        23.48820         0.17477
C          7.35408        22.78850        -0.00701
C          8.61671        25.02438         0.22641
C          7.30581        25.75060         0.16304
C          8.55255        27.86731        -0.34562
C          7.30380        27.18431        -0.17985
C          8.55938        29.27652        -0.53602
C          7.31173        29.97012        -0.62093
C          8.54523        32.16514        -0.90129
C          7.32641        31.36113        -0.95239
C          8.55740        33.61290        -0.79841
C          7.36094        34.44167        -0.73290
C          8.57639        36.56834        -0.11797
C          7.34100        35.71929        -0.10646
C          8.59736        37.59449         1.00136
C          7.35349        38.16263         1.36697
C         11.04274         3.46268         0.67990
C          9.82109         4.15229         0.78387
C         11.05868         6.30692         0.66942
C          9.82967         5.60346         0.76492
C         11.04063         7.73318         0.60548
C          9.84415         8.46132         0.68772
C         11.05129        10.65256         0.64432
C          9.83965         9.92473         0.67528
C         11.09073        12.06660         0.80224
C          9.84372        12.78960         0.78155
C         11.06174        14.96663         0.97490
C          9.82338        14.20468         0.74065
C         11.10899        16.39355         0.62460
C          9.87407        17.06129         0.42494
C         11.13105        19.18131         0.19750
C          9.88210        18.47642         0.24682
C         11.11547        20.61473         0.04073
C          9.93332        21.32478        -0.01522
C         11.04686        23.49943        -0.16176
C          9.89268        22.77745        -0.06998
C         11.02563        24.95056        -0.45112
C          9.81373        25.74399        -0.21651
C         11.04465        27.85719        -0.61103
C          9.80015        27.13134        -0.40297
C         11.03582        29.28883        -0.71791
C          9.79380        30.00595        -0.70164
C         11.04289        32.14039        -0.81593
C          9.78270        31.43881        -0.80400
C         11.03267        33.57714        -0.60986
C          9.80629        34.27782        -0.55750
C         11.10920        36.33488         0.28409
C          9.85077        35.74886        -0.30137
C         11.05790        37.52561         1.16589
C          9.79333        38.09746         1.49538
C         13.51555         3.44211         0.49735
C         12.28419         4.14618         0.59973
C         13.54454         6.25819         0.61068
C         12.29570         5.58028         0.61873
C         13.59030         7.71558         0.61452
C         12.31767         8.43321         0.36291
C         13.56234        10.64139         0.72143
C         12.31332         9.94227         0.41814
C         13.57911        12.03724         0.79249
C         12.33967        12.74863         0.83296
C         13.62763        14.94063         0.74213
C         12.38682        14.20069         1.03214
C         13.60118        16.34379         0.61498
C         12.35072        17.07890         0.55500
C         13.63483        19.22438         0.32550
C         12.36817        18.49548         0.33956
C         13.65543        20.62678         0.14816
C         12.39578        21.32003        -0.31042
C         13.61717        23.55654        -0.05218
C         12.34156        22.79656         0.01828
C         13.60583        24.98573        -0.41766
C         12.32114        25.68881        -0.66305
C         13.50104        27.85988        -0.85513
C         12.28058        27.16772        -0.65059
C         13.50998        29.25692        -0.99391
C         12.27932        29.99229        -0.88786
C         13.52178        32.18057        -1.13828
C         12.26120        31.42220        -0.92666
C         13.52969        33.64576        -0.76944
C         12.27192        34.25430        -0.31163
C         13.54483        36.12387         0.71962
C         12.32221        35.50685         0.30141
C         13.50534        37.38283         1.42039
C         12.23698        38.00193         1.70282
C         16.00562         3.40473         0.35093
C         14.74374         4.11553         0.45114
C         16.01834         6.28653         0.51598
C         14.74524         5.53918         0.54561
C         16.04885         7.66847         1.15386
C         14.75995         8.39958         0.80536
C         16.10126        10.60564         0.89017
C         14.76285         9.86138         0.96439
C         16.05445        12.04546         0.59644
C         14.84009        12.75515         0.72005
C         16.07585        14.84792         0.41310
C         14.84479        14.18214         0.60647
C         16.10855        16.31263         0.57889
C         14.83881        17.07769         0.52254
C         16.16295        19.19701         0.48081
C         14.85986        18.46938         0.44172
C         16.14702        20.70533         0.33752
C         14.86030        21.39343         0.08489
C         16.07687        23.51836        -0.40289
C         14.87115        22.77942        -0.16520
C         16.04801        24.91504        -0.62528
C         14.78814        25.63357        -0.66518
C         16.07691        27.78830        -1.08003
C         14.74796        27.06432        -1.06016
C         16.07923        29.25314        -0.94719
C         14.81017        29.94826        -1.24159
C         16.10683        32.12658        -0.81707
C         14.84689        31.46757        -1.23862
C         16.13693        33.57674        -0.54512
C         14.82369        34.34856        -0.46628
C         16.00089        36.12372         0.84664
C         14.79424        35.53519         0.40921
C         15.95672        37.37785         1.55377
C         14.69639        37.98444         1.81716
C         18.48728         3.34766         0.25940
C         17.21723         4.04636         0.33388
C         18.53903         6.22668         0.92720
C         17.28880         5.52384         0.37190
C         18.48806         7.68759         0.46528
C         17.30468         8.42307         0.72547
C         18.43790        10.49925         0.04121
C         17.29279         9.81408         0.53625
C         18.43983        11.93408        -0.08029
C         17.25654        12.70286         0.22575
C         18.48670        14.80743        -0.22949
C         17.27215        14.12681         0.16422
C         18.53225        16.22694        -0.28803
C         17.41747        17.01941         0.26455
C         18.51610        19.11219        -0.44125
C         17.39836        18.48134         0.06094
C         18.62946        20.59267        -0.44197
C         17.40566        21.40587        -0.06879
C         18.48646        23.46703        -0.89798
C         17.32559        22.81375        -0.51901
C         18.53865        24.90311        -0.84455
C         17.29183        25.63232        -0.72031
C         18.50374        27.77340        -0.47927
C         17.29017        27.03063        -0.75101
C         18.52252        29.23057        -0.62505
C         17.26921        29.94590        -0.76505
C         18.53223        32.05274        -0.31309
C         17.27989        31.39659        -0.65471
C         18.53776        33.42306         0.09990
C         17.31711        34.15503         0.11899
C         18.46513        36.07330         1.14633
C         17.26352        35.45526         0.66885
C         18.40698        37.37091         1.75138
C         17.15073        37.99208         1.96065
C         19.67140         3.99555         0.30386
C         20.67723         6.13997        -0.50946
C         19.87574         5.47216         0.57983
C         20.62239         7.46960        -0.72995
C         19.58104         8.31345        -0.15646
C         20.71694        10.43780        -0.83883
C         19.58108         9.73628        -0.34045
C         20.72566        11.81035        -0.93065
C         19.59657        12.59618        -0.55428
C         20.73461        14.73819        -1.16619
C         19.61350        14.04431        -0.65179
C         20.73803        16.11518        -1.28891
C         19.63779        16.89377        -0.85599
C         20.63981        19.02298        -1.65457
C         19.63627        18.35217        -0.98005
C         20.62806        20.44116        -1.84113
C         19.67845        21.23133        -1.26091
C         20.95750        23.42700        -1.28278
C         19.64851        22.72208        -1.52054
C         20.98857        24.76997        -1.10548
C         19.78370        25.55277        -0.92601
C         21.02580        27.81478        -0.92753
C         19.87570        26.97851        -0.59049
C         20.97178        29.16954        -0.79821
C         19.74375        29.89859        -0.57140
C         20.95471        32.00404        -0.01365
C         19.75099        31.33464        -0.34151
C         20.95657        33.32481         0.39743
C         19.75321        34.05709         0.49920
C         20.88996        36.08449         1.43145
C         19.72042        35.41287         1.01342
C         20.82893        37.36573         1.98754
C         19.60682        38.00327         2.16273
O          1.52607         6.76363        -2.00781
O         15.50607        10.26959         2.18320
O          8.76075        24.26265         1.46070
O         19.25073        27.30542         0.68205
O          3.37495        33.06675        -2.27058
O          3.63657        15.66216         1.74509
O         12.95176        23.23656         1.26680
O         16.26126        20.07932         1.65116
O          6.41537        25.32550         1.24245
O          0.78683        28.03902         1.49365
O         10.75945        36.52698        -1.15196
O         14.91027        30.71644        -2.49127
O         15.41564        27.33386        -2.32986
O          0.86301        24.01050         1.24791
O         11.70224        14.65079         2.25609
O         15.67043        34.45962        -1.63978
O         13.40653        33.21733        -2.16333
O         11.58686        25.15152        -1.82502
O         12.33554         9.20965        -0.88715
O         16.70432         6.19624        -0.78777
O          2.95033        25.15625        -1.94126
O         17.04246        16.69049         1.65127
O          6.55296         6.12270         2.16007
O          6.12078        32.99907        -2.20238
O          2.01406        33.60393         0.96052
O          6.14105        15.53751        -1.19979
O          4.19649        36.72802        -1.25667
O         18.49194        21.20985         0.89025
O         18.42431         6.22366         2.32489
O          8.09402        20.95242        -1.55703
O          3.51976        28.97044        -2.43279
H          3.51130        29.84849        -2.87130
O          2.85795        25.46800         1.61907
H          2.38188        24.66152         1.96931
O         20.71331         5.54173         1.75985
H         20.07120         5.77057         2.49149
O         12.44918        21.28719        -1.78230
H         12.25155        20.37238        -2.07476
O          4.28919         7.54098        -1.95951
H          3.54397         7.13993        -2.46249
O          7.18468         9.98071         2.49388
H          6.52383         9.30224         2.75264
O         19.39304        22.83882        -2.97301
H         19.40179        23.79410        -3.19688
O          8.39648        37.36792        -1.32820
H          9.30132        37.52877        -1.68984
O         16.03856         7.48871         2.58496
H         16.15048         8.37611         2.99287
O          6.37143        23.60449        -2.00619
H          6.64708        22.71863        -2.33164
H          1.32924         2.27003         0.72173
H         -0.62318         2.99727        -0.65509
H         -0.44317         5.12538        -1.99413
H         -0.63291         8.18319        -1.96391
H         -0.85055        10.49097        -1.06707
H         -0.97813        12.24872        -0.31216
H         -1.00711        14.65719        -0.07064
H         -1.01143        16.56740        -0.06787
H         -1.00879        18.98163        -0.27034
H         -0.91109        20.84096        -0.93285
H         -0.94721        23.27364        -0.92134
H         -0.98903        25.16896        -0.67718
H         -0.96362        27.58781        -0.87015
H         -1.06740        29.52163        -0.13347
H         -1.07493        31.96873        -0.36506
H         -1.09758        33.88783        -0.29300
H         -1.00720        36.19343         0.53457
H          0.27692        38.09317         1.45219
H          3.65608         2.44626         1.21915
H          2.41603        39.23784         1.92522
H          6.06879         2.40748         1.13389
H          4.93673        39.17216         1.87832
H          8.58911         2.35714         0.85861
H          7.34073        39.02948         2.04518
H         11.03780         2.36224         0.67426
H          9.77253        38.94508         2.19759
H         13.49698         2.34270         0.45672
H         12.21942        38.89332         2.34722
H         15.97456         2.30490         0.31030
H         14.66918        38.94995         2.34323
H         18.46425         2.25268         0.14083
H         17.11161        38.96941         2.46405
H         20.59914         3.40457         0.23655
H         21.43446         5.53351        -1.03089
H         21.31748         7.92227        -1.45291
H         21.61905         9.88067        -1.12555
H         21.63572        12.30224        -1.29813
H         21.62334        14.18487        -1.49577
H         21.62846        16.60158        -1.70799
H         21.47068        18.46532        -2.10606
H         21.41392        20.89250        -2.46318
H         21.89351        22.85437        -1.35362
H         21.95805        25.27932        -1.00226
H         21.94659        27.33859        -1.29409
H         21.88277        29.74742        -1.00824
H         21.90730        31.45883        -0.03841
H         21.91270        33.78949         0.67152
H         21.87139        35.60296         1.32914
H         21.75678        37.86305         2.30243
H         19.55962        39.00157         2.62029
