         324
 CSIRO Nanostructure Databank - Neutral Graphene Oxide Data Set
C         30.94493        57.25866        -2.24682
C         30.90979        58.68338        -2.17571
C         29.84548        59.42884        -2.74768
C         30.89368        61.50817        -2.06617
C         29.84435        60.82147        -2.67793
C         33.25668        52.94666        -1.56326
C         33.23303        54.35855        -1.51441
C         32.11351        55.10104        -1.93218
C         33.16605        57.20658        -1.19092
C         32.05980        56.51877        -1.80510
C         33.00658        58.62708        -0.82624
C         31.95035        59.38436        -1.50848
C         33.11484        61.49222        -0.96040
C         31.96971        60.79946        -1.47126
C         35.46265        48.57956        -0.42380
C         35.34015        50.04942        -0.14049
C         34.34754        50.80355        -0.98919
C         35.47632        52.94535        -0.44442
C         34.32934        52.18576        -1.01067
C         35.57833        54.38367        -0.76882
C         34.43167        55.08317        -1.10108
C         35.50025        57.24053        -0.44244
C         34.37520        56.52737        -0.95857
C         35.41157        58.57542        -0.00595
C         34.17261        59.38816        -0.16666
C         35.43316        61.65004        -0.28952
C         34.24178        60.86879        -0.41335
C         37.83806        44.32208         0.01821
C         37.76158        45.71577         0.17228
C         36.65677        46.45496        -0.27945
C         37.96793        48.59741        -0.12780
C         36.63036        47.88351        -0.22811
C         37.83401        50.05820         0.23145
C         36.69142        50.73080        -0.03711
C         38.02715        52.86969        -0.01913
C         36.68406        52.21018         0.03400
C         38.11606        54.35415        -0.26402
C         36.85991        55.08808        -0.63107
C         37.98091        57.21898         0.24554
C         36.81501        56.58209        -0.39517
C         37.85237        58.57482         0.61719
C         36.53397        59.12166         0.63681
C         37.91377        61.61300         0.33961
C         36.57341        61.25262         0.44254
C         40.34659        40.08137        -0.36054
C         40.27343        41.46044        -0.05727
C         39.07752        42.16431        -0.00098
C         40.17971        44.22555         0.76865
C         39.02770        43.58271         0.29013
C         40.17114        45.63224         1.17847
C         38.85560        46.43435         0.86726
C         40.18732        48.50596         1.04530
C         39.01152        47.87093         0.69559
C         40.28372        49.96581         0.79627
C         38.99184        50.73750         0.94198
C         40.35567        52.88635         0.82827
C         39.16088        52.19493         0.60332
C         40.37785        54.34905         0.76819
C         39.26425        55.07339         0.32110
C         40.29264        57.21796         1.03882
C         39.18631        56.50644         0.50611
C         40.22529        58.65415         1.17440
C         39.00186        59.36575         0.94966
C         40.23142        61.47346         1.05048
C         39.00735        60.81355         0.85853
C         42.86520        35.96677        -1.34604
C         42.81101        37.30202        -0.95990
C         41.60178        38.01460        -0.78068
C         42.82047        40.08208        -0.12234
C         41.57327        39.38755        -0.44972
C         42.78975        41.41637         0.34354
C         41.55478        42.25374         0.08096
C         42.66623        44.17396         1.31633
C         41.37295        43.36748         1.11296
C         42.68595        45.64840         0.93331
C         41.41875        46.39302         1.27460
C         42.64813        48.53154         1.61056
C         41.41305        47.78414         1.33813
C         42.69265        49.91346         1.61246
C         41.56056        50.69935         1.07845
C         42.72583        52.86539         1.56119
C         41.53742        52.17376         1.21762
C         42.69791        54.32366         1.62002
C         41.54020        55.04658         1.26403
C         42.61081        57.19120         1.87521
C         41.50832        56.49978         1.36534
C         42.58457        58.65855         1.99657
C         41.39460        59.37556         1.52149
C         42.65626        61.50188         1.45437
C         41.41449        60.79268         1.41897
C         45.37519        33.31441        -2.29613
C         44.15031        33.96317        -2.10497
C         45.34109        35.91052        -1.27285
C         44.11212        35.28062        -1.59382
C         45.29906        37.22648        -0.61453
C         44.10208        38.08485        -0.93638
C         45.25386        40.05734         0.11025
C         44.05709        39.39136        -0.18301
C         45.22792        41.43337         0.47505
C         43.97925        42.05685         0.73604
C         45.30799        44.19395         1.34381
C         43.97252        43.45236         1.24407
C         45.16556        45.70055         1.28485
C         43.95362        46.34101         1.37705
C         45.19864        48.45769         2.10742
C         43.87603        47.73145         1.87616
C         45.19919        49.94709         2.28799
C         43.85227        50.69657         2.09543
C         45.13202        52.86239         2.42918
C         43.88940        52.15269         1.92035
C         45.11882        54.34655         2.12443
C         43.89413        55.01602         1.99970
C         45.18461        57.24801         2.31599
C         43.82732        56.46489         2.23615
C         45.26643        58.77700         2.22273
C         43.89595        59.45082         2.09063
C         45.08914        61.46973         1.19621
C         43.87424        60.84329         1.58838
C         46.58036        33.93913        -1.98499
C         47.80966        35.96760        -1.22126
C         46.58746        35.25593        -1.45151
C         47.83681        37.29682        -0.76596
C         46.58542        37.90099        -0.24809
C         47.69888        40.15795        -0.41840
C         46.59808        39.35505         0.21006
C         47.54863        41.60295        -0.41548
C         46.41362        42.24070         0.27642
C         47.59536        44.42197         0.35056
C         46.42634        43.61934         0.51004
C         47.60173        45.79861         0.81083
C         46.41864        46.43140         1.30966
C         47.63500        48.54729         1.57466
C         46.43274        47.80680         1.62989
C         47.64763        49.99973         1.76390
C         46.44182        50.70284         2.06087
C         47.60021        52.82964         1.79258
C         46.41890        52.12391         2.04795
C         47.54830        54.29907         1.60332
C         46.34381        55.07489         2.02779
C         47.62609        57.22622         1.74023
C         46.36535        56.46768         1.96961
C         47.57876        58.61554         1.25874
C         46.21183        59.23540         1.10254
C         47.44935        61.36926         0.56407
C         46.26908        60.74581         0.99528
C         48.96898        38.11744        -0.92663
C         50.08480        40.33805        -0.99938
C         48.90787        39.54396        -0.80067
C         50.10221        41.71925        -0.77075
C         48.82698        42.44333        -0.60890
C         50.03749        44.51212        -0.06508
C         48.82571        43.82348        -0.09048
C         50.01209        46.01080         0.05181
C         48.80707        46.54513         0.79038
C         50.12886        48.55568         1.59632
C         48.83141        47.86747         1.24982
C         50.10730        50.02150         1.13348
C         48.84276        50.71958         1.58383
C         50.09751        52.83062         1.47174
C         48.84898        52.14059         1.61299
C         50.10607        54.26207         1.14451
C         48.81515        55.01045         1.27382
C         50.08845        57.19074         1.01187
C         48.90718        56.47619         1.52784
C         50.00337        58.57260         0.76310
C         48.72116        59.25904         0.83070
C         49.80695        61.27007        -0.12126
C         48.66645        60.65591         0.40320
C         51.29474        42.47221        -0.68983
C         52.49128        44.59011        -0.32613
C         51.27938        43.85377        -0.38736
C         52.55259        45.92560         0.12175
C         51.32093        46.61969         0.48396
C         52.64734        48.51029         1.32805
C         51.35574        47.84311         1.07943
C         52.64301        50.02001         1.58055
C         51.37179        50.77005         1.51922
C         52.61351        52.96485         1.88693
C         51.35872        52.15299         1.52991
C         52.69514        54.37344         1.27199
C         51.38423        55.02834         1.01091
C         52.50732        57.21977         0.71514
C         51.32776        56.51183         0.94999
C         52.41020        58.56634         0.26670
C         51.15750        59.23587         0.27072
C         52.14530        61.13865        -0.91002
C         51.05042        60.58117        -0.24579
C         53.78620        46.59434         0.24177
C         55.04316        48.66197         0.71350
C         53.87113        47.91039         0.75770
C         55.06718        50.06493         1.00876
C         53.88862        50.75263         1.35247
C         55.20523        52.95231         1.45899
C         53.91590        52.18731         1.68367
C         55.21312        54.49021         1.46054
C         53.84773        55.09130         1.15237
C         55.09014        57.46315         0.63965
C         53.82357        56.62559         1.17983
C         54.75857        58.43180        -0.48875
C         53.53844        59.15656        -0.39661
C         54.38819        60.89075        -1.90248
C         53.36086        60.41169        -1.07244
C         56.25720        50.80875         0.73149
C         57.40503        52.91390         0.30118
C         56.30580        52.19908         0.81218
C         57.38773        54.31749         0.17692
C         56.29147        55.08734         0.55949
C         57.21879        56.97272        -0.81687
C         56.42155        56.59624         0.43550
C         56.95631        58.13234        -1.58289
C         55.75235        58.89976        -1.36966
C         56.51200        60.53054        -3.06472
C         55.55059        60.11686        -2.11734
C         58.66285        54.98147        -0.29402
C         59.23695        56.56385        -2.14310
C         58.36433        56.20060        -1.12283
C         59.02583        57.75269        -2.88596
C         57.87170        58.53810        -2.59918
C         58.59057        60.13852        -4.33063
C         57.65426        59.74881        -3.33874
C         59.93205        58.17174        -3.89583
C         59.71077        59.35224        -4.60168
O         43.08730        59.22607         3.27214
O         39.16013        45.94296         2.19263
O         41.14981        50.30498        -0.31462
O         35.73953        52.74569         1.03475
O         55.38590        58.43438         1.62404
O         47.88613        42.24501        -1.69996
O         36.31990        60.24172         1.41468
O         33.06364        58.90517         0.63149
O         48.55743        56.94412         2.86985
O         38.41546        53.40208        -1.34508
O         47.88384        54.67349         0.19200
O         45.82054        37.13055         0.75126
O         44.38323        50.31703         3.43069
O         50.73011        54.46774        -0.20253
O         37.13681        56.01304        -1.73017
O         54.87845        52.42146         2.77690
O         44.46709        56.83596         3.50388
O         52.78457        49.03779         2.69271
O         44.49740        47.80430         3.20604
O         43.28607        43.74279         2.55118
O         34.80756        50.13592         1.23372
H         34.82720        51.09481         1.47664
O         45.08433        52.83200         3.89230
H         44.88983        51.89711         4.15577
O         45.61869        58.71911        -0.12905
H         46.18606        58.99559        -0.87952
O         46.91187        39.32556         1.63919
H         46.42580        38.55357         2.01133
O         45.79869        43.96658         2.70231
H         45.04929        44.15563         3.31222
O         41.00876        42.73734         2.36030
H         41.75112        42.88827         2.99430
O         41.79540        42.90389        -1.19819
H         41.85016        42.21071        -1.88820
O         59.42968        55.35648         0.85992
H         58.86143        55.97445         1.38612
O         38.66779        50.63783         2.36647
H         37.75473        50.97036         2.50161
O         44.34704        38.47678        -2.33475
H         43.53490        38.91421        -2.66722
O         50.16932        48.53934         3.04358
H         51.09659        48.74965         3.32030
O         50.07944        49.99162        -0.32697
H         49.96061        50.91158        -0.64658
O         45.83464        59.23839         3.45885
H         45.25649        58.90490         4.18027
O         57.27896        56.93343         1.55626
H         56.84415        57.76249         1.94386
O         49.83784        46.47408        -1.34092
H         49.02700        46.04983        -1.69462
O         55.56615        54.88554         2.80788
H         55.08209        55.73216         3.00460
O         52.46942        53.22167         3.30457
H         53.38343        53.28282         3.67458
O         53.80131        56.88809         2.61414
H         54.33125        57.74554         2.69644
O         38.51355        48.58521        -1.49130
H         37.91718        49.11507        -2.06146
O         42.72526        45.61048        -0.53361
H         42.60296        46.52319        -0.87101
H         30.10328        56.72874        -2.71663
H         29.02369        58.89817        -3.24894
H         30.89660        62.60732        -2.04707
H         29.01455        61.38636        -3.12551
H         32.38295        52.41185        -1.96357
H         31.23542        54.57298        -2.33168
H         33.14351        62.58445        -1.09353
H         34.52621        48.01648        -0.56493
H         33.48621        50.25167        -1.39575
H         35.46527        62.60912        -0.82856
H         36.98627        43.79516        -0.43712
H         35.76292        45.91779        -0.63248
H         38.18116        62.53748        -0.19330
H         39.41202        39.52426        -0.52918
H         38.13067        41.64454        -0.21373
H         40.27595        62.56291         0.90665
H         41.92719        35.40676        -1.48171
H         40.64668        37.48584        -0.92198
H         42.65275        62.56415         1.16625
H         45.38515        32.29151        -2.69840
H         43.21039        33.44634        -2.34532
H         45.07458        62.54793         0.97342
H         47.53317        33.41535        -2.14633
H         48.75317        35.50019        -1.54313
H         47.44164        62.45434         0.37806
H         49.90542        37.66421        -1.28601
H         51.03485        39.81861        -1.19331
H         49.74336        62.31345        -0.46574
H         52.25932        41.97157        -0.85874
H         53.43095        44.07422        -0.57564
H         52.05501        62.13373        -1.37052
H         54.70497        46.09503        -0.10068
H         55.96286        48.19775         0.32796
H         54.26501        61.84527        -2.43456
H         57.12517        50.27160         0.32026
H         58.28845        52.35722        -0.04652
H         56.34723        61.46271        -3.62630
H         59.28000        54.25609        -0.88407
H         60.11886        55.94106        -2.35491
H         58.42290        61.07117        -4.88844
H         60.81798        57.55690        -4.11024
H         60.42394        59.66806        -5.37579
