         291
 CSIRO Nanostructure Databank - Neutral Graphene Oxide Data Set
C          2.11895         2.15002         2.51270
C          1.95111         3.48968         2.32018
C          3.24172         1.43727         1.97697
C          2.97831         4.27587         1.62816
C          1.36824         6.23459         0.84795
C          1.20065         7.50694         0.44298
C          2.73455         5.74467         1.28679
C          2.36378         8.40964         0.17042
C          1.17810        10.63540         0.53839
C          1.17492        11.99310         0.82125
C          2.35010         9.87554         0.36808
C          2.43809        12.77043         1.12757
C          1.24720        15.10426         1.35400
C          1.29202        16.44488         1.19140
C          2.35147        14.27497         0.73257
C          2.48591        17.13378         0.68944
C          2.43489        18.52260         0.27689
C          4.16976         2.05718         1.17084
C          4.12542         3.51964         0.98467
C          5.28334         1.36185         0.57162
C          4.71856         4.12692        -0.28844
C          3.80900         6.29335         0.39019
C          3.70916         7.73219         0.10364
C          4.94077         5.61627        -0.05423
C          5.01331         8.46115         0.31092
C          3.67586        10.56174         0.66014
C          3.62180        12.08408         0.36305
C          4.86156         9.91226        -0.13779
C          5.02003        12.71505         0.67296
C          3.68206        14.98829         0.93239
C          3.68053        16.44272         0.63057
C          4.96357        14.24698         0.83260
C          4.94876        17.19148         0.53034
C          3.55182        19.22403        -0.06157
C          4.88505        18.66491         0.19768
C          6.17074         1.96822        -0.26475
C          5.89556         3.28054        -0.97642
C          7.29395         1.16946        -0.88204
C          7.23782         4.11867        -1.34127
C          6.10935         6.32251        -0.45012
C          6.18927         7.74300        -0.32207
C          7.36328         5.49946        -0.64161
C          7.36475         8.49250        -0.47838
C          6.19277        10.64505        -0.10965
C          6.10479        12.15331        -0.32029
C          7.36179         9.94861        -0.35190
C          7.41265        12.86318        -0.04906
C          6.10395        14.96956         0.11678
C          6.30112        16.48133         0.34338
C          7.37136        14.15792         0.36422
C          7.15747        17.15323        -0.83997
C          6.15946        19.33355        -0.16556
C          7.31130        18.61802        -0.43462
C          8.58157         1.96192        -0.86051
C          8.54852         3.37673        -1.02738
C          9.78475         1.29155        -0.70600
C          9.75808         4.09581        -0.98960
C          8.46470         6.35877        -1.32105
C          8.65334         7.69999        -0.57957
C          9.77984         5.55363        -1.34051
C          9.81632         8.47715        -1.14725
C          8.59500        10.77352        -0.77738
C          8.73802        12.14699         0.00505
C          9.88449         9.93841        -0.71270
C          9.91484        13.03324        -0.55637
C          8.56991        15.10716        -1.54975
C          8.48727        16.41987        -1.10075
C          9.82323        14.27694        -1.43182
C          9.76054        17.21320        -1.17159
C          8.58847        19.23252        -0.31837
C          9.79363        18.56471        -0.57164
C         11.02563         1.98989        -0.66649
C         10.99720         3.42078        -0.77101
C         12.25081         1.30280        -0.52485
C         12.25120         4.12207        -0.67470
C         11.05732         6.31164        -1.19479
C         11.04444         7.81197        -1.15915
C         12.22087         5.62518        -0.49158
C         12.29078         8.50696        -1.04722
C         11.04582        10.51268        -1.53742
C         11.23035        12.63584        -0.21376
C         12.35797         9.93240        -1.11569
C         12.34382        12.99577        -1.02556
C         11.07437        15.06074        -1.72361
C         11.08027        16.57960        -1.56871
C         12.36717        14.33537        -1.59056
C         12.38071        17.28113        -1.21939
C         11.03145        19.18393        -0.34627
C         12.30300        18.61116        -0.63933
C         13.49705         1.98868        -0.47630
C         13.44831         3.43995        -0.55138
C         14.70890         1.29642        -0.28330
C         14.79121         4.14069        -0.63682
C         13.53923         6.30132        -0.90186
C         13.48316         7.77609        -0.57788
C         14.76118         5.63736        -0.25466
C         14.75256         8.52055        -0.32731
C         13.50635        10.67819        -0.89338
C         13.57799        12.15193        -1.26530
C         14.78877         9.96234        -0.70837
C         14.74939        12.88369        -0.60134
C         13.64750        15.10614        -1.40692
C         13.60307        16.58576        -1.29684
C         14.78972        14.39711        -0.74035
C         14.89499        17.19880        -1.27975
C         13.42428        19.31197        -0.08599
C         14.76134        19.09642        -0.44211
C         16.06073         1.98510        -0.20260
C         15.76589         3.42032         0.30574
C         17.13574         1.31287         0.64537
C         17.00121         4.26160         0.66569
C         16.10426         6.32508        -0.62253
C         16.06586         7.81648        -0.31761
C         17.21454         5.65018         0.16785
C         17.22731         8.48927        -0.13842
C         16.07434        10.68006        -0.46477
C         16.00534        12.15884        -0.26126
C         17.22445         9.95905         0.24562
C         17.32295        12.87167        -0.36091
C         16.08892        15.12564        -0.65228
C         16.12294        16.58838        -0.94784
C         17.35397        14.33119        -0.63419
C         17.24572        17.31747        -0.46059
C         15.93650        19.31607         0.32363
C         17.12986        18.58902         0.17876
C         18.21137         2.01156         1.09469
C         18.21249         3.50479         1.12072
C         19.44137         1.39062         1.60432
C         19.52950         4.21634         1.21667
C         18.37050         6.33620         0.39693
C         18.53415         7.71411        -0.24199
C         19.57335         5.70178         0.98804
C         19.66562         8.52483         0.37602
C         18.50959        10.71167        -0.01192
C         18.51293        12.18947         0.31979
C         19.76725         9.96939        -0.05547
C         19.82699        12.92465         0.09115
C         18.63361        15.08503        -0.48551
C         18.56045        16.60139        -0.41740
C         19.84880        14.33895        -0.04681
C         19.74700        17.23838         0.16593
C         18.25612        19.06577         1.08953
C         19.60865        18.41577         0.88733
C         20.63172         2.03040         1.56676
C         20.75329         3.38609         0.89751
C         22.01753         4.16654         1.13298
C         20.89994         6.34831         0.85029
C         20.90589         7.81818         0.87533
C         22.05409         5.54267         1.01140
C         22.13831         8.62846         1.02404
C         21.06606        10.71754         0.16875
C         21.04255        12.21696         0.21906
C         22.18309         9.95395         0.78324
C         22.24414        12.94226         0.27004
C         21.05918        15.05922         0.06593
C         21.09395        16.59302        -0.11079
C         22.24865        14.33625         0.23801
C         22.19337        17.24178         0.68191
C         20.73216        19.00227         1.50780
C         22.00205        18.38147         1.41349
O         15.21118        14.98008         0.53232
O         13.28936        14.58220        -2.70931
O         20.70245        10.20936        -1.16975
O          4.51093        14.67740         2.13214
O         10.29091        17.27462        -2.57646
O         19.54250         5.09834         2.35752
O         19.80623         8.33759         1.79247
O         13.86552         8.18740         0.78778
O          2.99040         8.00301        -1.13054
O          4.33914         4.22771         2.24558
O         10.90577        11.12272        -2.58474
O         17.28455         4.08511         2.09599
O         17.50602        13.34719        -1.72307
O         18.87209        15.90071        -1.68485
O          5.02356        18.19006         1.61837
O         15.78251        10.21050        -1.79644
O         10.36758        14.36674        -2.81542
O         14.96426        18.52732        -1.72032
O         15.04595        12.50866         0.77734
O          5.39810         2.78234        -2.19630
O          2.65832        12.71154         2.54933
H          2.81242        11.75765         2.76923
O         18.86373         7.53257        -1.63372
H         18.10309         7.06465        -2.06208
O         16.90844        10.01987         1.68185
H         17.51647         9.40556         2.14946
O          7.20933         4.29705        -2.76225
H          6.45359         3.69942        -3.06746
O          2.11649        14.36807        -0.70308
H          1.28701        13.88531        -0.90570
O         16.43052         6.21362        -2.03050
H         15.67205         6.56864        -2.54760
O         15.19915         4.00342        -2.01647
H         14.61302         4.59001        -2.55402
O         10.22162         9.79572         0.70146
H         11.13834         9.43858         0.75304
O          5.57143        14.78898        -1.21758
H          5.82901        15.54356        -1.80644
O         13.84537        12.15302        -2.68475
H         13.00519        11.94374        -3.15075
O         16.63590         1.91770        -1.53110
H         16.11931         2.52279        -2.11883
O          8.45363        14.63944         1.05038
H          8.26831        15.56150         1.36574
O         12.02259         5.87384         0.92950
H         11.24518         5.35563         1.22802
O         13.66601         6.18150        -2.34643
H         12.77456         6.28736        -2.75303
O         20.66651         3.15417        -0.54958
H         21.40574         2.56534        -0.80906
O         11.52906        11.84344         0.83484
H         10.69096        11.62904         1.33033
O          6.33398        17.15782        -2.03852
H          6.91902        17.36531        -2.79788
O          4.53624         9.88119        -1.53765
H          4.23019        10.78960        -1.78961
O          8.06712         6.73762        -2.63750
H          7.79508         5.90961        -3.11159
O         18.38687        20.49039         1.00501
H         18.65252        20.72009         0.09099
O          7.75515         5.14588         0.71104
H          8.00759         5.97377         1.18798
O          5.49155        12.27017         1.97312
H          5.05822        12.86598         2.63384
O         10.67262         5.78403        -2.50307
O          3.33581        12.18847        -1.03956
H          3.53216        13.10465        -1.34466
O          8.32684        11.17411        -2.14414
H          8.50979        10.41463        -2.73861
O          9.00989         7.41795         0.82050
H          9.35691         8.27403         1.18659
O         18.27426        12.34816         1.75749
H         17.58907        11.67907         2.01959
O          2.98527         6.46962         2.53676
H          3.80400         6.07886         2.92130
O          3.60766         4.11261        -1.21891
H          3.92428         3.53768        -1.97902
O          7.04085        16.70565         1.55772
H          6.57378        17.44706         2.02931
O         15.01564         3.19641         1.52325
H         15.60519         3.45495         2.27373
O          3.82950        10.35030         2.08130
H          4.70771        10.72848         2.34093
O          5.73163        12.30739        -1.70762
H          6.45707        11.88321        -2.22621
O         14.69758         5.76050         1.16746
H         13.75494         5.72392         1.45709
O          8.99695        11.86644         1.40517
H          8.79259        12.69612         1.89185
O          7.47248        -0.09487        -0.24479
H          7.68570         0.06187         0.69774
O          5.31839         8.37989         1.72615
H          6.20399         8.77477         1.87039
O         21.41477        16.81509        -1.52210
H         20.64812        16.45893        -2.03558
O          7.63959        14.52147        -2.32458
H          7.87871        13.58631        -2.49716
H          1.35145         1.57927         3.05545
H          1.03347         3.99439         2.65564
H          3.31067         0.35338         2.14953
H          0.49727         5.57334         0.97289
H          0.19293         7.87545         0.19301
H          0.20614        10.13304         0.40837
H          0.20649        12.50100         0.95242
H          0.36728        14.61568         1.79747
H          0.44963        17.07235         1.52062
H          1.44396        18.98528         0.15582
H          5.44345         0.30754         0.85041
H          3.47184        20.22921        -0.50006
H          7.01904         0.96389        -1.95089
H          6.24076        20.40890         0.06211
H          9.77870         0.19504        -0.61485
H          8.62869        20.27193         0.04317
H         12.23775         0.20565        -0.43630
H         11.02324        20.18771         0.10540
H         14.68119         0.19395        -0.28235
H         13.21175        20.02257         0.72799
H         17.17087         0.21105         0.64734
H         15.90284        20.06658         1.12855
H         19.38097         0.35998         1.98760
H         17.93560        18.85096         2.14909
H         21.54145         1.52969         1.93285
H         22.95824         3.61568         1.28441
H         23.03312         6.04241         1.07679
H         23.03156         8.12702         1.42629
H         23.10962        10.49997         1.01765
H         23.20409        12.41241         0.34155
H         23.21166        14.85997         0.30048
H         23.20824        16.82988         0.59167
H         20.61081        19.93843         2.06877
H         22.85472        18.84039         1.93502
