         429
 CSIRO Nanostructure Databank - Neutral Graphene Oxide Data Set
C          1.91599         3.25687         1.33010
C          0.62214         3.63934         1.18289
C          1.23549         5.54072        -0.21818
C          0.27180         4.76677         0.36034
C          1.07184         7.88620        -0.42163
C         -0.09204         8.57582        -0.01994
C          1.22829        10.56044         0.39846
C         -0.00817         9.87184         0.44505
C          1.27602        11.98838         0.64686
C          0.15385        12.70833         1.13755
C          1.31419        14.84701         0.87936
C          0.17838        14.08345         1.25782
C          1.31439        16.30479         0.96750
C          0.16426        17.03114         1.33964
C          1.30575        19.17071         1.03371
C          0.15955        18.42044         1.36981
C          1.29566        20.62082         0.96820
C          0.10890        21.34591         1.20330
C          1.19850        23.45623         0.64135
C          0.06893        22.72299         1.05217
C          1.10587        24.89005         0.47008
C          0.02904        25.62686         0.94530
C          1.11275        27.78867         0.56307
C          0.01098        27.04115         0.94055
C          1.13328        29.23450         0.56771
C         -0.06685        29.97672         0.70427
C          1.14764        32.07092         0.45619
C         -0.06319        31.35262         0.61310
C          1.15965        33.51429         0.44405
C         -0.02641        34.29216         0.40533
C          1.19510        36.40588         0.43711
C          0.00129        35.69384         0.36414
C          1.24927        37.83813         0.37626
C          4.38199         3.61899         0.88095
C          2.98737         3.90444         0.56035
C          3.77912         6.16251        -0.53525
C          2.66681         5.17786        -0.22514
C          3.61293         7.68208        -0.66041
C          2.35021         8.45170        -0.34503
C          3.57649        10.62549        -0.30536
C          2.39691         9.85590        -0.02965
C          3.58824        12.00324        -0.16302
C          2.44603        12.72254         0.32154
C          3.66203        14.89792         0.09831
C          2.45792        14.15710         0.41142
C          3.68704        16.34061         0.26818
C          2.49495        17.03735         0.65949
C          3.68958        19.19882         0.39128
C          2.49813        18.46686         0.69827
C          3.69435        20.63302         0.36063
C          2.47430        21.33765         0.60661
C          3.60758        23.45287         0.00082
C          2.43860        22.76086         0.41516
C          3.44943        24.82227        -0.63309
C          2.21167        25.59715        -0.19539
C          3.58485        27.77516        -0.02429
C          2.27462        27.10579        -0.03406
C          3.60046        29.16975         0.22520
C          2.35830        29.91437         0.36710
C          3.62594        32.04408         0.35365
C          2.37812        31.34404         0.37505
C          3.61884        33.45945         0.45251
C          2.41722        34.17551         0.49322
C          3.66465        36.27602         0.02091
C          2.47269        35.66645         0.73623
C          3.65479        37.81967        -0.19800
C          2.41727        38.52211         0.17934
C          6.71675         3.77778         0.21343
C          5.40523         4.34069         0.25252
C          6.28032         6.38855        -0.76236
C          5.16017         5.62870        -0.34134
C          6.16699         7.79879        -0.99751
C          4.90494         8.49081        -0.46987
C          6.01862        10.68799        -0.88325
C          4.72005         9.93005        -1.00947
C          6.04966        12.04361        -0.64995
C          4.74263        12.78723        -0.72864
C          6.08929        14.87343        -0.24294
C          4.82581        14.21019        -0.25802
C          6.05538        16.34833        -0.56772
C          4.84872        17.06775        -0.01199
C          6.09121        19.22290        -0.14427
C          4.87664        18.49153         0.07182
C          6.11315        20.64264        -0.13694
C          4.88440        21.34994         0.05708
C          6.05670        23.46601        -0.49797
C          4.85843        22.77882        -0.12727
C          5.92160        24.86792        -1.08737
C          4.73064        25.64232        -0.56731
C          6.08239        27.69850        -0.22240
C          4.78474        27.00631        -0.30695
C          6.08570        29.06083         0.47091
C          4.82915        29.87054         0.29211
C          6.11385        31.97144         0.35526
C          4.86957        31.28853         0.34804
C          6.11298        33.46005         0.11847
C          4.91625        34.19297         0.74438
C          6.13592        36.29016        -0.06058
C          4.94235        35.62090         0.22141
C          6.13344        37.73165        -0.31061
C          4.94707        38.46909        -0.23049
C          9.02393         3.77051        -0.63803
C          7.76219         4.40373        -0.46927
C          8.65124         6.48794        -1.44342
C          7.56132         5.76640        -0.91576
C          8.57647         7.89300        -1.62025
C          7.29988         8.52446        -1.37533
C          8.49979        10.78571        -1.34711
C          7.21145         9.99868        -1.38798
C          8.47583        11.98688        -0.50921
C          7.29024        12.72926        -0.35755
C          8.48868        14.90146         0.30518
C          7.28137        14.15457        -0.05701
C          8.46151        16.37496         0.24740
C          7.30850        17.09019        -0.24092
C          8.55360        19.21977        -0.26196
C          7.32259        18.49725        -0.23119
C          8.56688        20.61618        -0.33657
C          7.34677        21.35489        -0.31438
C          8.53349        23.45895        -0.89289
C          7.32155        22.78927        -0.55295
C          8.54213        24.91311        -1.18369
C          7.23815        25.66930        -1.08657
C          8.57095        27.67467        -0.24151
C          7.26804        27.06491        -0.54432
C          8.56822        29.07311         0.26248
C          7.32800        29.85761         0.20380
C          8.61671        31.98878         0.13941
C          7.34921        31.25064         0.27059
C          8.63775        33.39878         0.03805
C          7.42375        34.17103         0.47739
C          8.59414        36.26417        -0.27661
C          7.39829        35.60588         0.00220
C          8.59507        37.69376        -0.52773
C          7.37862        38.39261        -0.50147
C         11.23880         3.69740        -1.69609
C         10.07032         4.37403        -1.36698
C         11.12880         6.57036        -2.20621
C          9.86786         5.76298        -1.84430
C         11.06831         8.00672        -1.89142
C          9.81661         8.63501        -1.77204
C         11.07526        10.78080        -1.12702
C          9.80511        10.09771        -1.58334
C         10.95163        11.94777        -0.21251
C          9.68589        12.30209         0.18268
C         10.94595        15.02809         1.12100
C          9.60482        14.36999         0.89546
C         11.04622        16.35573         0.41795
C          9.80280        17.11486         0.30334
C         11.15115        19.12091        -0.51524
C          9.81340        18.45037        -0.34048
C         11.16416        20.59972        -0.51043
C          9.87124        21.31561        -0.34468
C         11.12995        23.44367        -1.09403
C          9.83301        22.79167        -0.63290
C         11.07220        24.88745        -0.57671
C          9.86753        25.69617        -1.12751
C         11.07543        27.67570        -0.12567
C          9.78140        27.02885        -0.39892
C         11.11871        29.10927         0.05020
C          9.86607        29.83499         0.29005
C         11.05888        31.97588        -0.16539
C          9.84550        31.29131         0.08455
C         11.06470        33.38661        -0.33018
C          9.83857        34.10394        -0.19931
C         11.04853        36.21525        -0.59201
C          9.84184        35.53878        -0.33356
C         11.04850        37.65088        -0.78115
C          9.82815        38.35318        -0.75579
C         13.59837         3.64269        -2.05087
C         12.36009         4.35841        -2.46438
C         13.57807         6.48351        -1.78325
C         12.41012         5.83874        -2.12690
C         13.64419         7.99665        -1.87270
C         12.31001         8.67855        -1.55778
C         13.53323        10.73025        -0.79873
C         12.29495         9.96105        -1.05302
C         13.46670        11.91712         0.11989
C         12.14199        12.59961         0.39690
C         13.46744        14.81009         0.78102
C         12.15629        14.08597         0.82950
C         13.48553        16.25961         0.63570
C         12.27505        16.99075         0.30569
C         13.56964        19.07089        -0.02442
C         12.36759        18.38931        -0.07761
C         13.66599        20.45892        -0.63848
C         12.37202        21.27664        -0.50570
C         13.62408        23.42748        -0.51501
C         12.41485        22.71395        -0.61856
C         13.60252        24.84856        -0.55468
C         12.36429        25.63575        -0.90133
C         13.54314        27.61854         0.14325
C         12.28547        26.99285        -0.24669
C         13.57388        29.17224         0.17218
C         12.29717        29.83398        -0.05847
C         13.50228        31.92285        -0.54571
C         12.30622        31.26307        -0.25707
C         13.52215        33.34846        -0.65454
C         12.29398        34.07505        -0.54718
C         13.50983        36.18464        -0.88709
C         12.28725        35.49444        -0.67709
C         13.49841        37.61397        -1.03362
C         12.27949        38.31541        -0.99713
C         15.86107         3.53203        -1.13902
C         14.71669         4.28999        -1.53287
C         15.94520         6.36241        -0.98508
C         14.76557         5.73188        -1.46316
C         16.00125         7.83185        -0.87175
C         14.84753         8.59173        -1.16315
C         16.11352        10.73529        -0.52051
C         14.85906        10.04945        -0.97781
C         16.05267        12.07183         0.11039
C         14.72832        12.64598         0.46341
C         15.92296        14.76094         1.08932
C         14.65699        14.08932         0.78117
C         15.91452        16.28606         1.08414
C         14.68755        16.97922         0.68502
C         15.97472        19.08583         0.61046
C         14.76014        18.38053         0.38668
C         16.01126        20.51836         0.55256
C         14.92452        21.23269        -0.18831
C         16.06107        23.41523         0.53448
C         14.93725        22.72826        -0.21151
C         16.48764        24.65888         0.15015
C         14.75597        25.63831        -0.60688
C         16.05635        27.62478         0.10909
C         14.81893        26.95857        -0.12794
C         16.01296        29.06634        -0.10965
C         14.83984        29.79180        -0.19373
C         16.00825        31.93664        -0.80647
C         14.74106        31.13185        -0.90777
C         16.00349        33.32421        -0.86233
C         14.74836        34.04974        -0.83306
C         15.98110        36.18296        -1.07996
C         14.74737        35.46934        -0.93826
C         15.94680        37.60248        -1.19869
C         14.74087        38.28820        -1.19780
C         18.17670         3.38366        -0.28808
C         17.00557         4.16036        -0.65836
C         18.18944         6.23983         0.16559
C         17.03810         5.58449        -0.56214
C         18.48001         7.62735        -0.39821
C         17.21097         8.43582        -0.46119
C         18.50020        10.46032         0.38284
C         17.34377         9.89090        -0.33964
C         18.41955        11.84928         0.84132
C         17.20065        12.65425         0.60423
C         18.41989        14.74049         1.12434
C         17.22466        14.05478         0.96539
C         18.48133        16.23723         0.87961
C         17.19055        16.98798         1.00048
C         18.36127        19.10044         1.37301
C         17.17980        18.37491         0.95458
C         18.24438        20.49971         1.59592
C         17.07060        21.20552         1.14176
C         18.21685        23.40875         1.79966
C         16.91118        22.67241         1.52098
C         18.31175        24.83628         1.70972
C         17.37486        25.57743         0.84677
C         18.41965        27.91158         0.78174
C         17.28148        26.98109         0.57397
C         18.51640        29.13156         0.04487
C         17.28502        29.70943        -0.52087
C         18.52849        31.94321        -0.78075
C         17.26962        31.19054        -0.85728
C         18.50278        33.35247        -0.97167
C         17.24669        34.06260        -0.98698
C         18.47247        36.18753        -1.29498
C         17.23054        35.46603        -1.10313
C         18.46973        37.59785        -1.45656
C         17.21614        38.41347        -1.27217
C         19.34088         3.97458         0.10256
C         20.62586         6.03798         0.54360
C         19.44952         5.40420         0.23314
C         20.68691         7.46690         0.70382
C         19.65050         8.28378         0.33114
C         20.88890        10.43495         0.87648
C         19.66322         9.72561         0.56561
C         20.94096        11.78522         1.05403
C         19.71626        12.57201         1.23861
C         20.83201        14.80445         1.49233
C         19.69347        14.06350         1.23350
C         20.79366        16.21811         1.71026
C         19.64268        16.94802         1.52541
C         20.56999        19.10466         2.37940
C         19.53501        18.38452         1.75526
C         20.45419        20.47100         2.61419
C         19.31181        21.19816         2.23291
C         20.29947        23.31529         3.08242
C         19.26076        22.65419         2.39476
C         20.28549        24.69670         3.19463
C         19.32995        25.43752         2.49159
C         20.71845        28.34119         1.56395
C         19.50953        27.63728         1.63235
C         20.84300        29.42397         0.70384
C         19.71258        29.89460         0.00292
C         20.94570        31.97552        -0.70819
C         19.73549        31.25466        -0.55358
C         20.93910        33.32260        -1.02467
C         19.73111        34.05501        -1.11627
C         20.89867        36.20775        -1.61900
C         19.71194        35.48656        -1.35026
C         20.86865        37.57875        -1.82554
C         19.65649        38.27630        -1.72838
O         13.55720        28.37296         1.38691
O         14.12048        11.66332         1.41089
O         18.83142        12.00357         2.25249
O          3.61375         6.85270        -1.84002
O          7.84968        25.42662        -2.40344
O         12.09420        12.99025         1.79698
O         10.45873        18.48623        -1.65523
O         19.37024        26.79975         2.74171
O          7.70369        10.74122        -2.56606
O          9.54625        13.05575         1.35728
O         10.22914         6.06021        -3.23666
O          8.97569        17.02848         1.49193
O          9.94792        22.31644         0.76666
O          2.81633         3.89706        -0.92346
O         15.82351        15.52083         2.34639
O         15.95662        25.10846        -1.06765
O         15.48007        21.96462        -1.35545
O         10.60923        10.90445        -2.51477
O          3.42843        36.83606        -1.28476
O         17.30580        30.12752        -1.92874
O         17.11297        10.65622        -1.60793
O          1.83088        26.47640        -1.30889
O         14.25957        10.88787        -2.07100
O          9.25327        29.32910         1.55343
O          0.82860         6.63063        -0.98403
O          4.96704        34.21392         2.19650
H          5.90674        34.36631         2.47059
O         13.86866         8.29252        -3.29006
H         13.97825         9.27065        -3.35823
O          5.90554        16.38665        -2.03483
H          5.17452        15.77659        -2.27567
O         16.21326        22.64319         2.81490
H         16.79592        22.18769         3.45910
O          6.13634        28.73871         1.91888
H          7.08139        28.72322         2.18972
O          2.71430        35.85364         2.16909
H          3.47052        35.26228         2.42316
O          5.07597         8.59540         0.97097
H          5.85308         9.16567         1.15013
O         17.11176        39.42075        -2.29147
H         17.02147        38.97002        -3.15585
O         18.90460         7.44122        -1.78118
H         18.89151         8.31600        -2.22408
O          4.37326         9.89587        -2.41795
H          5.08352         9.42222        -2.90212
O         18.76663        16.29530        -0.58543
H         18.98309        17.22763        -0.80439
O          3.18454        24.46819        -2.02081
H          2.84378        25.28386        -2.45516
O         14.59540        30.78354        -2.33262
H         15.47256        30.42015        -2.61134
O         12.16991         4.21939        -3.90286
H         11.37940         4.76333        -4.13286
O         11.06820        15.30693         2.54169
H         11.17442        14.43725         2.98857
O         10.16436        26.09399        -2.49290
H          9.29565        26.18167        -2.95903
O         13.80813        20.19133        -2.05656
H         14.32720        20.94136        -2.43428
O          5.58225        24.58528        -2.47576
H          6.43242        24.48508        -2.96567
O         10.98670        24.87431         0.85914
H         10.65216        24.00122         1.16927
O          5.93071        33.61549        -1.31762
H          6.65253        33.13328        -1.77281
O          7.55737        34.21935         1.94383
H          8.41326        34.65316         2.14736
O         12.60198        25.83301        -2.32969
H         11.86125        26.37236        -2.70047
O         17.73775         6.43761         1.53954
H         17.62005         5.55394         1.94653
O          4.46647        12.90517        -2.17181
H          4.39115        11.98563        -2.52575
O         11.13985        23.45153        -2.52920
H         11.79080        24.13801        -2.81772
H          2.19398         2.45802         2.03194
H         -0.17638         3.12270         1.73297
H         -0.78270         5.05270         0.25735
H         -1.05929         8.06068        -0.08074
H         -0.92309        10.38377         0.76896
H         -0.75782        12.17479         1.43755
H         -0.71399        14.58722         1.65243
H         -0.76533        16.50464         1.59349
H         -0.77244        18.92782         1.65180
H         -0.81319        20.82525         1.49181
H         -0.88633        23.23557         1.22303
H         -0.82883        25.11714         1.40354
H         -0.88254        27.54097         1.33869
H         -1.02134        29.45243         0.84431
H         -1.01641        31.89107         0.69529
H         -1.00365        33.79449         0.34619
H         -0.94479        36.24086         0.23516
H          0.30980        38.39807         0.50578
H          4.62374         2.70073         1.43604
H          2.43288        39.62129         0.22477
H          6.87036         2.77725         0.64371
H          4.99610        39.56538        -0.14769
H          9.15574         2.74426        -0.26483
H          7.38067        39.48029        -0.66747
H         11.37684         2.66951        -1.32890
H          9.83019        39.44089        -0.92140
H         13.62224         2.54855        -2.16949
H         12.28309        39.40761        -1.12904
H         15.82815         2.43549        -1.22020
H         14.74825        39.38262        -1.30637
H         18.11788         2.28990        -0.38674
H         17.31821        38.97465        -0.29951
H         20.23167         3.36051         0.30464
H         21.54137         5.44955         0.70707
H         21.59725         7.89080         1.15259
H         21.83507         9.87894         0.80968
H         21.91663        12.29190         1.08025
H         21.79435        14.29262         1.63391
H         21.71647        16.70291         2.05973
H         21.48484        18.58891         2.70048
H         21.29920        20.97692         3.09767
H         21.09188        22.75143         3.58863
H         21.03498        25.22321         3.79857
H         21.54266        28.05847         2.23132
H         21.78791        29.98157         0.68127
H         21.91152        31.46359        -0.60194
H         21.90260        33.83220        -1.15752
H         21.86097        35.68288        -1.68202
H         21.79767        38.12184        -2.04735
H         19.63078        39.36610        -1.86709
