         210
 CSIRO Nanostructure Databank - Neutral Graphene Oxide Data Set
C         30.43749        31.63733         0.75652
C         30.38592        32.87931         0.81625
C         30.52839        36.09678         0.51604
C         30.39944        37.37937         0.62046
C         30.49921        40.42202         0.24530
C         30.42961        41.68196         0.20492
C         32.80236        28.82071         0.15769
C         31.69060        29.36821         0.38840
C         32.76376        31.48929         0.26776
C         31.55233        30.76842         0.50862
C         32.77413        33.00385         0.46470
C         31.43373        33.72921         0.07718
C         32.85721        35.91222         0.76649
C         31.50761        35.17048         0.47743
C         32.82395        37.41078         0.39710
C         31.57949        38.14169         0.41739
C         32.83702        40.29904         0.24041
C         31.59796        39.55710         0.29406
C         32.84377        41.74233         0.22489
C         31.57944        42.48714         0.19512
C         32.87635        44.44495         0.23151
C         31.75468        43.89989         0.18708
C         35.50088        27.27953        -0.08849
C         35.31923        28.68477        -0.07442
C         34.07948        29.38714         0.00962
C         35.24463        31.58046        -0.03484
C         34.00933        30.82744         0.06146
C         35.25993        32.98242        -0.04010
C         33.93921        33.71674        -0.24142
C         35.24205        35.87834        -0.16597
C         34.01010        35.16208         0.17007
C         35.25430        37.38360        -0.12708
C         34.00709        38.11979         0.19292
C         35.31843        40.24865         0.13691
C         34.05475        39.55863         0.17902
C         35.33871        41.67661         0.25825
C         34.10426        42.41396         0.28288
C         35.36755        44.55040         0.47593
C         34.17549        43.87483         0.32245
C         35.63025        45.93368         0.44414
C         37.89053        27.26445        -0.12408
C         36.60143        26.68225        -0.12148
C         37.82802        28.69951        -0.10742
C         36.56834        29.37122        -0.11674
C         37.83003        31.57554         0.06942
C         36.51461        30.84033        -0.21349
C         37.70263        33.00981         0.45553
C         36.47460        33.73078         0.05324
C         37.74385        35.88287         0.01864
C         36.51923        35.14065        -0.01106
C         37.72032        37.32664        -0.10599
C         36.54901        38.08155        -0.02259
C         37.79559        40.23400         0.02473
C         36.55947        39.52532         0.04637
C         37.80695        41.66640         0.16579
C         36.59866        42.36056         0.32865
C         37.92415        44.54734         0.33579
C         36.66994        43.80159         0.78519
C         37.96163        45.94351         0.26309
C         36.69051        46.59820         0.53887
C         40.39374        24.52047        -0.27900
C         39.33472        25.19202        -0.20120
C         40.38468        27.29060        -0.09631
C         39.12908        26.58128        -0.12975
C         40.34978        28.71283         0.03742
C         39.08450        29.42203         0.04610
C         40.29951        31.50229         0.65797
C         39.05489        30.79907         0.30820
C         40.27747        33.03757         0.76366
C         38.98312        33.79370         0.65918
C         40.24283        35.84492         0.11696
C         38.99467        35.20639         0.23082
C         40.29048        37.27143        -0.25524
C         38.98483        38.04837        -0.34313
C         40.26770        40.16051        -0.13507
C         39.03296        39.51319        -0.14794
C         40.30962        41.61454         0.11855
C         39.07239        42.38933         0.15059
C         40.37351        44.50578        -0.18026
C         39.13728        43.79683         0.14210
C         40.38110        45.95368        -0.31016
C         39.16182        46.64449        -0.05259
C         40.35070        48.72603        -0.42633
C         39.33314        48.04128        -0.15968
C         42.97424        24.59218        -0.44750
C         41.66935        25.12968        -0.30701
C         42.86136        27.34708        -0.21331
C         41.64020        26.58295        -0.19195
C         42.84451        28.76992        -0.05580
C         41.58605        29.44544         0.10502
C         42.78343        31.59696         0.38102
C         41.58090        30.84294         0.34879
C         42.75154        33.03696         0.47963
C         41.52884        33.75011         0.50067
C         42.72239        35.88930         0.35841
C         41.48487        35.15792         0.30478
C         42.71288        37.33636         0.25035
C         41.53315        38.02256        -0.01908
C         42.75913        40.14388        -0.20263
C         41.52486        39.44887        -0.15339
C         42.76473        41.54094        -0.76444
C         41.61643        42.36040        -0.18090
C         42.74138        44.47238        -0.98225
C         41.53771        43.79006        -0.46967
C         42.79757        45.94051        -0.91004
C         41.59626        46.67366        -0.63474
C         42.87971        48.66748        -1.00807
C         41.60940        48.13416        -0.68879
C         44.00243        25.30508        -0.50115
C         45.32187        27.46131        -0.49620
C         44.14049        26.70788        -0.39422
C         45.32042        28.88165        -0.32616
C         44.06541        29.52534        -0.05172
C         45.25646        31.70224         0.13391
C         44.03812        30.93792         0.17513
C         45.22527        33.10855         0.32355
C         43.98188        33.77619         0.47070
C         45.12124        35.94657         1.08744
C         43.92335        35.20275         0.56115
C         45.10663        37.41699         0.74617
C         43.94903        38.07467         0.38325
C         45.20708        40.22975         0.16919
C         43.97267        39.50018         0.11011
C         45.24177        41.63551        -0.18571
C         44.07553        42.27082        -0.59353
C         45.33367        44.43749        -0.86756
C         44.08231        43.68228        -0.99139
C         45.29005        45.83550        -1.12421
C         44.05362        46.56362        -1.16387
C         43.90817        47.97132        -1.18766
C         47.65083        27.63187        -1.00595
C         46.62542        26.96080        -0.79783
C         47.80416        29.04398        -0.86561
C         46.53008        29.66594        -0.46441
C         47.70123        31.87362        -0.42101
C         46.48932        31.04694        -0.21263
C         47.77604        33.23212         0.16367
C         46.45205        33.96069         0.03212
C         47.59755        35.97843         0.88033
C         46.44057        35.30390         0.70931
C         47.58740        37.42571         1.26034
C         46.31162        38.19348         1.03409
C         47.64468        40.27977         0.60251
C         46.39822        39.60343         0.61020
C         47.70160        41.67047         0.23068
C         46.50760        42.34926        -0.14041
C         47.79584        44.42813        -0.44652
C         46.53319        43.74256        -0.49397
C         47.65259        45.79248        -0.80085
C         46.59323        46.40185        -1.07018
C         50.27423        29.35077        -1.41274
C         48.96556        29.76707        -1.06755
C         50.27305        31.97497        -0.66706
C         48.98186        31.25372        -0.89498
C         50.27060        33.19088         0.07386
C         48.97884        33.85416         0.39154
C         49.73741        36.01284         1.78340
C         48.97355        35.36616         0.60876
C         50.01178        37.46047         1.46086
C         48.84684        38.18767         1.17597
C         50.14318        40.23667         0.87422
C         48.87180        39.57664         0.90683
C         50.20080        41.64809         0.56548
C         48.97463        42.34781         0.24514
C         50.29018        44.27482        -0.03328
C         48.98271        43.74442        -0.09226
C         51.33384        30.00191        -1.56607
C         52.60546        32.22329        -1.08891
C         51.49437        31.36249        -1.15675
C         52.58050        33.28825        -0.40406
C         51.54989        33.81786         0.38876
C         52.38151        35.86376         1.60397
C         51.84982        34.56663         1.59695
C         52.36203        37.11504         1.55448
C         51.27466        38.06838         1.40805
C         52.49101        40.27254         1.05498
C         51.33630        39.45438         1.13104
C         52.58422        41.49953         0.82451
C         51.47960        42.34247         0.54449
C         51.38356        43.71960         0.22815
O         35.13952        36.67585        -1.44276
O         37.33755        31.38029        -1.30349
O         48.09942        31.93446        -1.86763
O         49.74214        35.56995         2.92173
O         41.26923        41.99663         1.18188
O         43.31472        43.94522        -2.23393
O         38.11510        33.43687         1.78539
O         39.67593        37.57816        -1.55483
O         40.32387        32.19546         1.95444
O         46.79750        37.85847         2.42130
O         51.55643        33.95106         2.75093
H         51.60793        34.57375         3.50678
O         42.50617        41.38473        -2.19013
H         42.72104        42.24980        -2.62128
O         49.51762        35.94444        -0.59901
H         48.99301        35.61564        -1.35992
O         33.02505        35.92604         2.21835
H         32.26525        36.41413         2.60187
O         31.17537        33.61959        -1.30023
H         30.47587        34.25544        -1.55366
O         33.69881        33.68894        -1.67732
H         34.32283        34.31469        -2.10414
O         32.97735        33.21249         1.87145
H         32.19119        32.87417         2.35143
O         45.00584        35.83697         2.54471
H         45.63755        36.49747         2.92720
O         36.74599        43.73365         2.24727
H         36.81652        44.65397         2.58115
O         46.36946        34.28399        -1.40186
H         46.62398        33.47912        -1.90831
