         630
 CSIRO Nanostructure Databank - Neutral Graphene Oxide Data Set
C         23.00550        27.38736        -1.39756
C         23.02383        28.64484        -0.84746
C         23.13286        31.47313         0.08609
C         23.17011        32.82679         0.34281
C         23.22789        35.72051         0.81467
C         23.23369        37.11057         1.03982
C         23.39080        39.90288         1.91779
C         23.37350        41.21949         2.23463
C         23.23615        44.27822         2.43884
C         23.21537        45.62856         2.43878
C         25.32579        25.06380        -3.18451
C         24.16161        25.56108        -2.61699
C         25.45136        27.42334        -1.67483
C         24.20146        26.76752        -1.88142
C         25.44566        28.74949        -1.14894
C         24.24092        29.39304        -0.76765
C         25.48223        31.53271        -0.57870
C         24.27839        30.78241        -0.39058
C         25.50077        32.94830        -0.34783
C         24.34413        33.60136         0.11644
C         25.54809        35.79595         0.06621
C         24.35462        35.04311         0.34819
C         25.53802        37.23822         0.25138
C         24.36011        37.88165         0.78625
C         25.45023        40.09300         0.59841
C         24.39946        39.32011         1.05001
C         25.45775        41.54761         0.82199
C         24.31429        42.16319         1.61650
C         25.62790        44.32038         1.65385
C         24.52426        43.50718         2.29439
C         25.61139        45.73136         1.78663
C         24.41399        46.40318         2.19513
C         25.55112        48.54734         2.02144
C         24.40635        47.80246         2.29058
C         28.94787        23.22619        -3.18588
C         28.59201        24.53174        -2.81436
C         26.56220        25.68310        -2.92236
C         27.95262        27.42899        -1.70752
C         26.68062        26.81632        -2.09864
C         27.91472        28.76740        -1.33674
C         26.67663        29.47799        -1.16481
C         27.86491        31.64056        -1.46811
C         26.66716        30.86839        -0.98598
C         27.86198        33.09005        -1.07570
C         26.72260        33.70382        -0.60311
C         27.89435        35.88922        -0.68604
C         26.70515        35.14210        -0.39994
C         27.80125        37.35205        -0.69293
C         26.62611        38.00928        -0.14295
C         27.90542        40.19331        -0.00139
C         26.55815        39.51597        -0.25046
C         27.91686        41.62272         0.34972
C         26.74232        42.27901         0.76583
C         27.96451        44.42270         0.88681
C         26.76414        43.67006         1.09997
C         27.97491        45.83343         1.08896
C         26.77760        46.50403         1.47993
C         27.96435        48.68072         1.36831
C         26.75717        47.92473         1.62098
C         27.99539        50.09415         1.48808
C         30.47977        23.06207        -1.31262
C         29.91800        22.51248        -2.47823
C         30.01116        24.33570        -0.92589
C         29.18367        25.18005        -1.69965
C         30.34705        27.31371        -1.08120
C         29.17889        26.64155        -1.47704
C         30.39782        28.80471        -1.38439
C         29.15159        29.47914        -0.84335
C         30.36014        31.67072        -1.05293
C         29.16450        30.96280        -1.12169
C         30.38410        33.10303        -1.11336
C         29.11364        33.84755        -1.44938
C         30.35414        35.99745        -0.95534
C         29.11216        35.27590        -0.98428
C         30.36933        37.38899        -0.72610
C         29.11777        38.14922        -0.73873
C         30.40531        40.22365         0.06398
C         29.08080        39.53398        -0.22634
C         30.32107        41.67985        -0.40665
C         29.12050        42.35955         0.21223
C         30.38515        44.48374         0.37654
C         29.15307        43.74754         0.47370
C         30.38788        45.88423         0.58925
C         29.17697        46.57673         0.88963
C         30.37980        48.74088         0.81417
C         29.17391        48.00315         1.02319
C         30.37572        50.17267         0.92660
C         29.15273        50.81266         1.27610
C         32.79602        20.29742        -0.26839
C         31.66008        21.00128        -0.64607
C         32.76782        23.12169        -0.16762
C         31.61888        22.40806        -0.63644
C         32.81221        24.58661        -0.15417
C         31.63317        25.37793        -0.18335
C         32.83793        27.41079        -0.66740
C         31.59036        26.69825        -0.66976
C         32.86097        28.83983        -0.76691
C         31.64353        29.54495        -0.94721
C         32.83794        31.67911        -0.73591
C         31.61842        30.94367        -0.88688
C         32.82649        33.10161        -0.78318
C         31.58860        33.82109        -0.97033
C         32.83834        35.96544        -0.95053
C         31.59918        35.26069        -0.98224
C         32.85445        37.40994        -0.90339
C         31.60829        38.12817        -0.68072
C         32.80225        40.31636        -0.94546
C         31.60254        39.50936        -0.50458
C         32.82713        41.73653        -0.41768
C         31.62013        42.40919        -0.17744
C         32.85741        44.50826         0.16541
C         31.62067        43.79450         0.11875
C         32.85200        45.92448         0.36578
C         31.61907        46.61636         0.52415
C         32.84675        48.74352         0.51795
C         31.60999        48.03453         0.58921
C         32.78711        50.20536         0.16946
C         31.56678        50.92065         0.68719
C         32.77304        53.03632         0.41737
C         31.60855        52.33160         0.67958
C         35.25993        18.85409         0.43508
C         35.23400        20.24949         0.31864
C         33.98798        20.97784         0.05201
C         35.22650        23.11442         0.36467
C         33.96263        22.39285         0.08474
C         35.26236        24.60463         0.16613
C         34.02106        25.30015        -0.18074
C         35.28773        27.42105        -0.27140
C         34.04452        26.71178        -0.37251
C         35.30585        28.83360        -0.35731
C         34.07782        29.55184        -0.56143
C         35.30303        31.69493        -0.44072
C         34.07284        30.97427        -0.58291
C         35.30133        33.10825        -0.52968
C         34.05816        33.81849        -0.71521
C         35.34728        35.91414        -1.00409
C         34.05526        35.22529        -0.87297
C         35.35088        37.43778        -1.04689
C         34.06558        38.13732        -0.87781
C         35.31369        40.24782        -0.71098
C         34.09297        39.55159        -0.74309
C         35.29015        41.72774        -0.74298
C         34.04878        42.43494        -0.36235
C         35.33443        44.54523         0.07467
C         34.08665        43.81887        -0.04691
C         35.31029        45.92230         0.36971
C         34.08151        46.64298         0.45165
C         35.32727        48.83986         0.89194
C         34.06254        48.06838         0.56851
C         35.30408        50.28504         0.45421
C         34.07694        50.96113         0.35867
C         35.27073        53.09674         0.17794
C         34.04507        52.37984         0.29390
C         35.29626        54.54594         0.15296
C         37.69345        18.80540         0.63252
C         36.45844        18.14955         0.60678
C         37.70340        20.23707         0.50113
C         36.47617        20.95558         0.39270
C         37.72510        23.07131         0.20435
C         36.51553        22.37917         0.28575
C         37.78344        24.51007        -0.26464
C         36.52944        25.30179        -0.05005
C         37.77555        27.41149        -0.04538
C         36.52955        26.68901        -0.13930
C         37.76303        28.82450        -0.02516
C         36.53541        29.55130        -0.20635
C         37.74695        31.69947        -0.03249
C         36.53437        30.97707        -0.23196
C         37.74641        33.12419        -0.09643
C         36.53701        33.82799        -0.39587
C         37.77025        35.97401        -0.36625
C         36.57896        35.23236        -0.57446
C         37.76309        37.40613        -0.44276
C         36.60110        38.13423        -0.70170
C         37.80008        40.30148        -0.59824
C         36.56900        39.57428        -0.66375
C         37.84249        41.68872        -0.50274
C         36.59614        42.47033        -0.60858
C         37.81977        44.50570         0.00884
C         36.59287        43.86543        -0.12416
C         37.87530        45.91603         0.42646
C         36.57023        46.65291         0.60204
C         37.78526        48.80232         0.38139
C         36.60055        48.12625         0.50650
C         37.82161        50.29130         0.66486
C         36.51655        50.99101         0.36750
C         37.74646        53.09701        -0.08734
C         36.50752        52.39045         0.13930
C         37.67580        54.53254        -0.56577
C         36.42368        55.23439        -0.11876
C         40.18730        15.97576         0.93054
C         39.01935        16.63990         1.05099
C         40.13349        18.79419         0.84945
C         38.95179        18.09587         0.85224
C         40.17958        20.19732         0.42556
C         38.92643        20.96056         0.44547
C         40.22565        23.08412         0.36031
C         38.96309        22.36035         0.29822
C         40.21512        24.53120         0.37974
C         39.02080        25.25657         0.16231
C         40.21260        27.38882         0.40273
C         39.00104        26.67558         0.16259
C         40.20081        28.84310         0.42429
C         38.98286        29.54885         0.19652
C         40.17563        31.68202         0.44924
C         38.97607        30.97514         0.20120
C         40.14178        33.14707         0.58076
C         38.94275        33.87647         0.12810
C         40.24528        36.00052         0.09484
C         38.97732        35.27201         0.00209
C         40.27360        37.39960        -0.09200
C         38.98709        38.18338        -0.00100
C         40.33511        40.26421        -0.42781
C         39.07193        39.50442        -0.76361
C         40.31772        41.69883        -0.36165
C         39.08107        42.40484        -0.36853
C         40.29168        44.54950        -0.16167
C         39.06835        43.82064        -0.20082
C         40.29947        45.99298        -0.08185
C         39.09073        46.69832         0.13915
C         40.26000        48.84551        -0.00639
C         39.05037        48.10765         0.17597
C         40.23295        50.30660        -0.06915
C         39.03908        50.99946         0.10720
C         40.20014        53.15299        -0.41457
C         38.97093        52.42234        -0.12067
C         40.17052        54.57927        -0.42640
C         38.95863        55.29064        -0.30861
C         40.18315        57.34603         0.23654
C         38.97843        56.66912        -0.04070
C         42.74066        16.01713         1.01535
C         41.47066        16.72922         0.61715
C         42.66640        18.88021         1.21459
C         41.38444        18.09278         1.30972
C         42.71025        20.21269         0.89523
C         41.49274        20.93260         0.42998
C         42.68355        23.09733         0.69003
C         41.45034        22.40573         0.51595
C         42.68724        24.52333         0.75819
C         41.43344        25.24069         0.62221
C         42.62888        27.38702         0.96834
C         41.39951        26.65343         0.63583
C         42.67127        28.83498         0.63738
C         41.39315        29.57723         0.61783
C         42.65038        31.73209         0.75246
C         41.40336        30.99517         0.62000
C         42.71900        33.11684         0.65614
C         41.46439        33.89616         0.66410
C         42.71218        35.98950         0.15898
C         41.47644        35.31520         0.28000
C         42.71642        37.36991        -0.13631
C         41.50185        38.08949        -0.20529
C         42.78142        40.26112        -0.18100
C         41.51794        39.55437        -0.30332
C         42.78205        41.71714        -0.20778
C         41.53592        42.42170        -0.26589
C         42.75606        44.57556        -0.32198
C         41.52522        43.84887        -0.24294
C         42.76622        45.99921        -0.32287
C         41.51717        46.72201        -0.17742
C         42.73955        48.90059        -0.20970
C         41.47411        48.14097        -0.15180
C         42.68325        50.34527        -0.50812
C         41.45233        51.03273        -0.39716
C         42.66535        53.19023        -0.97866
C         41.41378        52.44751        -0.55038
C         42.70109        54.60824        -0.47110
C         41.42677        55.38638        -0.64902
C         42.64868        57.31838         0.40518
C         41.40664        56.71294         0.06187
C         43.83919        16.67064         1.41638
C         45.18185        18.84667         1.36482
C         43.88585        18.15514         1.74142
C         45.18727        20.24549         1.09217
C         43.94918        20.95692         0.92801
C         45.16496        23.08408         0.76142
C         43.92987        22.37083         0.78378
C         45.16700        24.51568         0.77878
C         43.92330        25.20454         0.87584
C         45.21091        27.39732         0.97400
C         43.93811        26.65518         1.10263
C         45.23421        28.80215         1.05489
C         43.96272        29.54639         0.83107
C         45.18262        31.74511         1.24143
C         43.88061        31.00146         1.11381
C         45.19202        33.14513         0.79300
C         43.98318        33.81658         0.56954
C         45.17482        35.93312         0.20467
C         43.98196        35.25694         0.30263
C         45.19631        37.44075         0.30623
C         44.01918        38.07368        -0.44131
C         45.24804        40.23696         0.05957
C         43.96844        39.55194        -0.13843
C         45.25989        41.75487        -0.10076
C         43.97821        42.44039        -0.28691
C         45.19911        44.57106        -0.66669
C         43.98632        43.86726        -0.42165
C         45.19467        45.96988        -0.77812
C         43.99270        46.67230        -0.52212
C         45.23961        48.85122        -0.85873
C         44.02653        48.14089        -0.40550
C         45.15409        50.30424        -1.00663
C         43.91106        51.04659        -0.71465
C         45.18838        53.16471        -0.60073
C         43.94671        52.44092        -0.74071
C         45.16193        54.54736        -0.24614
C         43.87829        55.25246        -0.15607
C         43.83110        56.63621         0.27829
C         47.61280        18.83487         1.26769
C         46.39891        18.17047         1.45531
C         47.65618        20.22110         1.04239
C         46.42708        20.94204         0.96858
C         47.61776        23.09445         0.70054
C         46.41300        22.37802         0.79135
C         47.63520        24.52640         0.55018
C         46.39571        25.23909         0.70946
C         47.62762        27.40341         0.63027
C         46.41534        26.67862         0.78982
C         47.67643        28.80713         0.80795
C         46.45928        29.50093         1.06001
C         47.75820        31.71398         1.18789
C         46.47035        30.96470         1.30747
C         47.67775        33.15278         0.81531
C         46.47256        33.78613         0.59589
C         47.73481        35.93654        -0.05259
C         46.44678        35.18710         0.11081
C         47.72018        37.41340        -0.08222
C         46.51164        38.10819        -0.05755
C         47.71945        40.24386        -0.32428
C         46.51966        39.52142        -0.15469
C         47.68844        41.68083        -0.55291
C         46.50581        42.38419        -0.55673
C         47.71063        44.54120        -1.30772
C         46.43411        43.80367        -0.97823
C         47.71465        46.00548        -1.17976
C         46.39058        46.70567        -1.38103
C         47.69272        48.88914        -1.06508
C         46.42429        48.18277        -1.06002
C         47.72159        50.30332        -0.93672
C         46.48004        51.07614        -1.06709
C         47.65372        53.15550        -0.38269
C         46.43941        52.48954        -0.66708
C         47.59583        54.52295        -0.03599
C         46.38083        55.19519         0.02319
C         50.14853        20.28620         0.78968
C         48.92823        20.92254         0.91374
C         50.17347        23.12093         0.53457
C         48.89583        22.39095         0.87687
C         50.09237        24.47643        -0.13618
C         48.81389        25.21415         0.20942
C         50.08936        27.44961        -0.09844
C         48.79377        26.67578         0.10830
C         50.13279        28.81626         0.45029
C         48.95958        29.51364         0.74758
C         50.20328        31.65293         0.82445
C         49.01614        30.95792         0.92354
C         50.26027        33.13104         0.86889
C         48.95199        33.90403         0.79878
C         50.21052        35.94173         0.13799
C         49.00759        35.27905         0.29688
C         50.20272        37.37865        -0.14076
C         48.96086        38.10435        -0.16808
C         50.20383        40.19570        -0.49698
C         48.96243        39.52122        -0.32392
C         50.21176        41.62311        -0.83069
C         48.98480        42.46500        -0.54297
C         50.24422        44.57477        -0.88389
C         49.04095        43.77432        -1.37960
C         50.16519        45.96463        -0.83947
C         48.91954        46.70432        -1.06499
C         50.17221        48.89439        -1.09121
C         48.90652        48.14678        -1.03755
C         50.18679        50.34059        -0.81993
C         48.94221        51.02629        -0.72843
C         50.15059        53.10185        -0.33845
C         48.91975        52.43428        -0.48374
C         51.35817        20.98014         0.48793
C         52.59917        23.08779        -0.10052
C         51.39393        22.34080         0.26641
C         52.61551        24.49680        -0.04977
C         51.34893        25.27721         0.28592
C         52.66235        27.38854         0.00526
C         51.38316        26.67107        -0.37293
C         52.69095        28.75528         0.27082
C         51.44394        29.43507         0.67449
C         52.73660        31.66049         0.48692
C         51.49023        30.95200         0.83784
C         52.71470        33.07726         0.32380
C         51.49385        33.81596         0.44112
C         52.69293        35.87359        -0.09967
C         51.47120        35.20612         0.20734
C         52.65873        37.29973        -0.43044
C         51.40531        38.06996        -0.30058
C         52.66778        40.23952        -0.37699
C         51.42574        39.49541        -0.46051
C         52.71808        41.62941        -0.38694
C         51.52303        42.39391        -0.77856
C         52.65205        44.51531        -0.18727
C         51.46412        43.86844        -0.59223
C         52.64296        45.99359        -0.04006
C         51.35196        46.72464        -0.40866
C         52.70261        48.89035        -0.51904
C         51.47743        48.13971        -0.85190
C         52.68235        50.30064        -0.53103
C         51.40719        51.02363        -0.61293
C         51.35649        52.41834        -0.38801
C         54.98899        23.09187        -0.58813
C         53.80143        22.40725        -0.42472
C         55.04918        24.50019        -0.44085
C         53.83407        25.20822        -0.21944
C         55.11335        27.33430        -0.01524
C         53.86912        26.65064        -0.09672
C         55.13764        28.76366         0.13044
C         53.92810        29.47574         0.29779
C         55.16894        31.63334         0.15983
C         53.93378        30.92833         0.34203
C         55.17444        33.05564         0.09516
C         53.94333        33.77623         0.11408
C         55.18924        35.92030        -0.07593
C         53.93155        35.19705        -0.05208
C         55.21246        37.32431        -0.07056
C         53.97205        38.05387        -0.36398
C         55.17752        40.22644         0.22471
C         53.88240        39.48965        -0.00090
C         55.16385        41.68560         0.07193
C         53.93510        42.36303        -0.11841
C         55.11601        44.48588         0.30924
C         53.87219        43.78920        -0.02602
C         55.12157        46.04554         0.15951
C         53.90087        46.74728        -0.17590
C         55.15475        48.89948        -0.26742
C         53.92337        48.16503        -0.34277
C         55.11022        50.29904        -0.26313
C         53.90632        50.98898        -0.37141
C         57.54668        24.54148        -0.70417
C         56.30885        25.21746        -0.43394
C         57.63051        27.27847         0.14843
C         56.32500        26.59416        -0.15009
C         57.61328        28.77330        -0.05686
C         56.39580        29.48133         0.05627
C         57.63879        31.61627        -0.04661
C         56.39927        30.90757         0.05039
C         57.65120        33.04952        -0.02812
C         56.41778        33.77262         0.01293
C         57.66597        35.91043         0.01349
C         56.42554        35.19223        -0.00678
C         57.67593        37.34176         0.06451
C         56.43591        38.06457         0.05904
C         57.66505        40.20887         0.14491
C         56.44486        39.48015         0.10820
C         57.65553        41.64988         0.19679
C         56.41005        42.38060         0.13168
C         57.63962        44.51590         0.27783
C         56.40645        43.78884         0.19455
C         57.66028        45.93894         0.17753
C         56.42596        46.66353        -0.17105
C         57.73626        48.83045        -0.02656
C         56.44980        48.18016        -0.33173
C         58.74889        25.22267        -0.76448
C         60.02174        27.32954        -0.58572
C         58.82477        26.59983        -0.46644
C         60.04771        28.70450        -0.39631
C         58.84860        29.45825        -0.18655
C         60.08047        31.63273        -0.21900
C         58.86378        30.89731        -0.15745
C         60.09313        33.00663        -0.16079
C         58.88742        33.75617        -0.06619
C         60.11149        35.93468         0.04094
C         58.89698        35.19398        -0.00510
C         60.11668        37.30888         0.10538
C         58.90461        38.05652         0.11446
C         60.10575        40.24622         0.27144
C         58.90192        39.49686         0.16732
C         60.09187        41.61938         0.35786
C         58.87476        42.35975         0.31771
C         60.07847        44.55577         0.46119
C         58.87625        43.80817         0.36388
C         60.07715        45.93780         0.42747
C         58.86829        46.65434         0.24276
C         58.86148        48.10460         0.18821
O         51.60703        30.05573         1.99352
O         54.33710        39.74806         1.36432
O         49.67755        33.72364         2.07785
O         45.33789        41.12319         1.22631
O         43.15672        27.07657         2.29971
O         40.65836        33.63535         1.87017
O         40.95862        20.40128        -0.83233
O         43.62880        48.60367         0.94985
O         47.07487        35.32459        -1.23697
O         47.21710        31.36712         2.51418
O         51.72391        46.52460         0.98991
O         43.49163        29.21021        -0.53742
O         56.48348        47.26816        -1.49681
O         37.32619        46.15543         1.77187
O         46.81888        44.04093        -2.40111
O         27.66134        25.16247        -3.62757
O         49.17495        27.28433        -1.23522
O         30.44719        24.82130         0.31821
O         50.95014        41.91663        -2.04244
O         49.73697        23.07056         1.92243
O         53.39654        37.69172        -1.65285
O         45.72683        50.76602        -2.28352
O         35.45678        36.64642        -2.27956
O         35.94094        42.31133        -1.92954
O         55.06789        45.39168         1.46369
O         24.31729        42.24150         0.17365
O         28.30180        37.95507        -1.94976
O         51.02849        48.41442        -2.20867
O         35.17636        23.99291         1.54504
O         44.36465        31.43279         2.42311
O         41.40853        55.73228        -2.09071
H         41.58977        54.88589        -2.57350
O         41.52217        16.95835        -0.81040
H         41.55436        16.09019        -1.26158
O         26.22210        39.80600        -1.64556
H         26.91680        39.36411        -2.19104
O         46.13469        46.66519        -2.82854
H         46.25808        45.72400        -3.10492
O         41.19101        17.79504         2.73910
H         40.82210        18.59638         3.16699
O         37.89584        24.38781        -1.74433
H         38.73119        23.90657        -1.93090
O         51.28282        25.51384         1.70394
H         51.03440        24.67697         2.15723
O         29.17631        29.33412         0.60940
H         28.32200        29.66304         0.96026
O         44.96538        37.74974         1.71101
H         45.69738        37.37625         2.24432
O         27.78413        31.58482        -2.93774
H         28.40557        32.27767        -3.27916
O         50.13604        24.20276        -1.55552
H         50.59647        24.96243        -1.99394
O         32.59718        50.18586        -1.30966
H         32.44043        51.11451        -1.58683
O         24.98156        43.18460         3.65241
H         25.10538        44.03081         4.13224
O         32.66749        40.47386        -2.40253
H         32.62800        39.57602        -2.79581
O         37.57820        54.44750        -2.03709
H         36.75970        53.94835        -2.24413
O         35.37224        48.89854         2.35800
H         36.20092        49.38247         2.59463
O         43.82979        18.22482         3.20503
H         42.94499        17.86091         3.45482
O         51.48878        26.48742        -1.81547
H         50.73535        26.97491        -2.22604
O         30.08253        41.62397        -1.83926
H         30.28105        42.50293        -2.22304
O         57.81947        27.10634         1.61798
H         58.68186        27.51820         1.84178
O         49.26893        43.50807        -2.76676
H         48.39282        43.37602        -3.19492
O         37.94794        50.37013         2.14109
H         38.78146        49.91332         2.38736
O         39.16627        39.15503        -2.17631
H         38.97098        39.95734        -2.70425
O         30.34787        28.94115        -2.83343
H         31.15740        28.53501        -3.20668
O         49.10210        42.91774         0.84249
H         48.87844        42.17199         1.43883
O         42.55508        53.28475        -2.46746
H         43.46598        53.37018        -2.82446
O         29.11997        33.94127        -2.94175
H         28.47824        34.64188        -3.19052
O         38.80456        38.51957         1.40467
H         38.87974        37.69413         1.92805
O         44.28242        37.91762        -1.86316
H         43.47972        38.18812        -2.35616
O         30.57701        40.27206         1.51274
H         30.73867        39.36051         1.83389
H         22.05271        26.84957        -1.50976
H         22.07923        29.10047        -0.52032
H         22.19706        30.92552         0.26275
H         22.25802        33.31082         0.71570
H         22.29917        35.17501         1.02645
H         22.31036        37.57706         1.40809
H         22.67153        39.23248         2.40819
H         22.69003        41.58993         3.01253
H         22.31267        43.71212         2.62995
H         22.27326        46.17151         2.60893
H         25.30018        24.17859        -3.83338
H         23.19855        25.06186        -2.79393
H         25.50014        49.63901         2.12553
H         23.48068        48.31592         2.58845
H         28.49226        22.79326        -4.08548
H         27.08224        50.64288         1.75405
H         30.24564        21.52955        -2.84321
H         29.11932        51.90497         1.38337
H         32.76578        19.20010        -0.28204
H         30.76900        20.44317        -0.96604
H         32.72113        54.13241         0.39170
H         30.69402        52.90735         0.88060
H         34.32512        18.27890         0.39924
H         34.37501        55.09914         0.38233
H         36.41285        17.05640         0.70424
H         36.37961        56.33130        -0.15788
H         40.21344        14.87704         1.00169
H         38.08988        16.08182         1.23640
H         40.14817        58.37666         0.62002
H         38.03973        57.22974         0.05773
H         42.77783        14.92327         0.87628
H         42.64735        58.34506         0.80122
H         44.73760        16.08229         1.65972
H         44.76250        57.14623         0.55558
H         48.54529        18.26054         1.34855
H         46.42181        17.09845         1.69245
H         48.51354        55.07968         0.19307
H         46.39464        56.25828         0.29560
H         50.20372        19.19026         0.84893
H         50.17396        54.18610        -0.16831
H         52.26809        20.37591         0.36576
H         52.28140        52.98837        -0.23361
H         55.89968        22.51684        -0.80104
H         53.79880        21.31316        -0.52260
H         56.04330        50.87574        -0.20315
H         53.93658        52.08565        -0.38551
H         57.54045        23.47024        -0.94345
H         57.77959        49.92695         0.03947
H         59.66127        24.69365        -1.07858
H         60.94469        26.80399        -0.87337
H         61.00721        29.22575        -0.50566
H         61.03944        31.10460        -0.29903
H         61.06077        33.52336        -0.20178
H         61.07543        35.40930         0.03417
H         61.08348        37.82779         0.14137
H         61.07444        39.73029         0.29833
H         61.05073        42.14585         0.44871
H         61.04120        44.03741         0.55970
H         61.02436        46.49055         0.50371
H         59.81267        48.62308         0.38087
