         252
 CSIRO Nanostructure Databank - Neutral Graphene Oxide Data Set
C         30.44913        31.73989         1.69465
C         30.54107        32.97806         1.55592
C         30.62035        36.12890         1.70467
C         30.65390        37.37060         1.69923
C         29.87750        39.92202        -1.43859
C         30.59095        40.94921        -1.22560
C         32.97881        28.95272         1.93098
C         31.90148        29.57020         1.95977
C         32.80291        31.60809         1.15902
C         31.66761        30.95694         1.63225
C         32.73511        33.00723         0.55018
C         31.57391        33.85688         1.15209
C         32.76062        35.99080         0.64351
C         31.60689        35.21708         1.21661
C         32.85313        37.46965         0.81818
C         31.72910        38.22190         1.27140
C         32.82973        40.30751         0.66281
C         31.70394        39.62939         1.19928
C         32.72609        41.76637         0.39891
C         31.44937        41.94311        -0.93861
C         32.62460        44.09380        -1.34648
C         31.67040        43.26640        -1.28398
C         35.69599        27.34411         1.17772
C         35.50465        28.79715         1.50097
C         34.17064        29.39688         1.10783
C         35.32915        31.62486         0.65740
C         34.17278        30.96993         1.38396
C         35.27430        33.03991         0.40817
C         34.06766        33.74734         0.54493
C         35.27342        35.99604         0.15559
C         34.02429        35.20874         0.30583
C         35.24547        37.36720         0.14759
C         34.04362        38.14513         0.45949
C         35.22723        40.32016         0.07327
C         34.01877        39.57960         0.37545
C         35.24551        41.69359        -0.07456
C         33.99541        42.48439         0.00000
C         35.22320        44.26452        -1.48118
C         33.95315        43.83392        -0.76984
C         35.45278        45.72620        -1.76257
C         38.04569        27.28842         0.75008
C         36.72108        26.68384         0.99633
C         37.94588        28.79303         0.58169
C         36.65377        29.50976         0.75082
C         37.71560        31.61743        -0.05799
C         36.52340        30.86964         0.44274
C         37.71092        33.10076         0.08662
C         36.50965        33.76847         0.09965
C         37.78317        35.93596        -0.39957
C         36.43262        35.19611        -0.43354
C         37.79097        37.44725        -0.36240
C         36.40971        38.14702        -0.44635
C         37.77556        40.25452        -0.33768
C         36.51916        39.54137         0.19369
C         37.70100        41.75536        -0.21549
C         36.50071        42.40748        -0.28026
C         37.71224        44.67729        -0.55868
C         36.44233        43.87412        -0.57835
C         37.84357        46.02946        -1.23807
C         36.55872        46.28338        -1.83040
C         40.07221        24.79082        -1.35872
C         39.19747        25.53277        -0.86581
C         40.47667        27.33933         0.03710
C         39.25460        26.47528         0.34416
C         40.38483        28.73787        -0.16000
C         39.01473        29.35664        -0.35186
C         40.28224        31.60924        -0.23486
C         38.99221        30.88993        -0.36825
C         40.20453        32.97707         0.42847
C         38.98607        33.80698         0.04516
C         40.26959        35.94477         0.06123
C         39.00809        35.17262        -0.03409
C         40.26163        37.43275         0.31626
C         38.98976        38.20311         0.18409
C         40.11808        40.40131         0.91138
C         39.00409        39.56327         0.25398
C         40.23081        41.76426         0.21254
C         38.97244        42.47296        -0.36699
C         40.16969        44.64130        -0.39035
C         38.98533        43.93907        -0.41172
C         40.12740        46.13948        -0.21334
C         39.01833        46.71421        -1.15852
C         40.44689        48.73473        -1.37688
C         39.44019        48.01647        -1.54784
C         42.61489        24.70998        -2.04129
C         41.48244        24.71959        -1.20296
C         42.83317        27.39887        -0.71026
C         41.71031        26.70700        -0.17580
C         42.79593        28.82968        -0.74543
C         41.54524        29.48623        -0.48385
C         42.72215        31.70268        -0.64207
C         41.46940        30.93570        -0.42004
C         42.79628        33.07231        -0.05782
C         41.53593        33.73176         0.39516
C         42.78554        36.00598         0.23850
C         41.48156        35.23189         0.64516
C         42.81801        37.27884         1.08684
C         41.47450        38.08701         0.97833
C         42.82585        40.24913         0.98382
C         41.47397        39.59718         1.13074
C         43.05462        41.59296         0.95965
C         41.24307        42.73681         0.57175
C         42.70046        44.61953        -0.21426
C         41.37399        43.97519        -0.01149
C         42.69946        46.12236        -0.17079
C         41.48781        46.83019        -0.24534
C         42.80934        48.91270        -0.29003
C         41.40322        48.39055        -0.22230
C         43.62647        25.42419        -1.73720
C         45.16645        27.44219        -1.49798
C         43.96819        26.73139        -1.32125
C         45.22958        28.86862        -1.24701
C         44.01151        29.54010        -1.01253
C         45.30798        31.73245        -0.78133
C         44.01356        31.01742        -0.97470
C         45.30352        33.07745        -0.39700
C         44.02267        33.88466        -0.44645
C         45.26971        35.84438         0.52087
C         44.07078        35.20440         0.29302
C         45.27560        37.31354         0.70049
C         44.08853        38.02170         0.74816
C         45.39379        40.20003         0.60900
C         44.09510        39.46894         0.89725
C         45.43496        41.65466         0.29528
C         44.06352        42.22784        -0.01280
C         45.31442        44.51850        -0.30983
C         43.98104        43.77738        -0.25841
C         45.25808        46.05852        -0.18879
C         43.97900        46.77506        -0.07454
C         43.79957        48.17774        -0.11174
C         47.52199        27.52809        -1.78165
C         46.44018        26.92123        -1.88215
C         47.76692        28.90965        -1.51054
C         46.49006        29.61556        -1.29537
C         47.80358        31.75915        -1.07460
C         46.51990        30.99600        -1.03969
C         47.79335        33.14761        -0.50241
C         46.51299        33.78816        -0.10363
C         47.78690        35.77168         0.72314
C         46.51461        35.09999         0.36188
C         47.77316        37.27872         0.80865
C         46.52893        38.03189         0.55396
C         47.83532        40.08148        -0.05450
C         46.56448        39.38548         0.27070
C         47.95635        41.60007         0.10918
C         46.61475        42.31590         0.19407
C         47.90982        44.48474         0.34625
C         46.61599        43.76510        -0.09992
C         47.57047        45.88188         0.62021
C         46.54772        46.51511         0.34664
C         50.29890        28.97289        -1.30327
C         48.99307        29.51317        -1.33970
C         50.33843        31.51260        -0.40854
C         49.15628        31.04474        -1.29580
C         50.25507        32.82392         0.31494
C         49.02803        33.65884         0.17352
C         50.29140        35.78847         0.45392
C         49.10164        35.12445         0.43343
C         50.31160        37.23394         0.89222
C         49.05272        37.97448         0.57923
C         50.76757        40.33364         0.81904
C         49.02291        39.22026         0.05487
C         50.35479        41.64249         1.24907
C         49.16997        42.31323         0.70887
C         49.91454        44.20271         1.90290
C         48.97091        43.69038         0.99000
C         51.40539        29.44237        -0.94953
C         52.62362        31.50076         0.18224
C         51.52132        30.77487        -0.40159
C         52.65897        32.67051         0.57598
C         51.53675        33.63496         0.85173
C         52.68147        35.90768         0.54932
C         51.60089        34.97910         0.10581
C         52.71184        37.08205         0.90921
C         51.59537        37.97677         1.28039
C         52.29988        40.18590         2.49995
C         51.66471        39.46368         1.46225
C         52.18042        41.40421         2.79537
C         51.19519        42.27085         2.26790
C         50.86772        43.62873         2.48686
O         50.76154        37.37703         2.29546
O         42.14899        42.44166         1.58138
O         45.41876        45.40054        -1.46675
O         40.52533        36.87330        -1.01500
O         47.67552        44.14244        -1.02853
O         39.95280        41.77701        -1.21915
O         34.07097        43.80962         0.65430
O         47.78919        32.95613        -1.95354
O         43.16641        31.64027        -2.04648
O         36.75919        44.70941         0.56959
O         44.98630        39.93033         2.00676
O         47.96827        40.97709        -1.21435
O         38.77186        28.82751        -1.63771
O         41.22385        38.71045         2.27833
O         49.24736        32.81996         1.38185
O         42.48000        33.11040         1.36475
O         50.21032        39.82775        -0.36337
O         38.12945        31.36440        -1.45486
O         33.02250        35.56722        -0.73757
O         41.79460        25.30811         0.06388
O         38.42462        28.18016         1.84546
O         38.03139        36.73156        -1.60958
O         43.25033        44.07944        -1.48511
O         47.72143        36.46082         2.01739
O         39.63174        40.72865         2.22980
H         39.83080        39.95890         2.81239
O         43.02719        36.93473         2.46850
H         42.66625        37.67360         3.01127
O         30.60856        40.25819         1.64549
H         30.71056        41.23356         1.57295
O         37.87460        40.05911        -1.77956
H         38.72590        40.47168        -2.06172
O         43.70991        41.60224        -1.27607
H         43.40707        42.31471        -1.89202
O         42.79344        36.47985        -1.12076
H         43.02143        35.73378        -1.73000
O         32.42235        32.82994        -0.85670
H         32.48729        33.71919        -1.28317
O         33.95742        29.12997        -0.24980
H         33.09464        29.50152        -0.52902
O         34.46580        31.18135         2.78466
H         33.92779        30.54660         3.30800
O         39.95291        32.62969         1.82479
H         40.82818        32.44730         2.23768
O         40.76984        48.81364         0.97013
H         40.62209        49.78151         0.92842
O         41.24283        35.33795         2.06422
H         41.93634        34.81887         2.52823
O         39.61463        46.32986         1.12767
H         39.73920        47.28056         1.36463
O         32.07516        42.45457         1.43290
H         32.46299        43.36579         1.46936
O         51.38514        33.91290         2.21071
H         51.08540        33.11111         2.68586
O         43.85981        34.20700        -1.87144
H         43.69953        33.34467        -2.34208
O         36.07326        35.02182        -1.82538
H         36.28880        35.86926        -2.28186
O         49.58364        31.35110        -2.64398
H         49.18652        32.21979        -2.89195
O         51.63603        34.70842        -1.28417
H         51.91660        35.51083        -1.76975
O         36.02528        38.25112        -1.82615
H         36.74870        38.71350        -2.31112
O         36.70870        39.31077         1.61294
H         36.83520        40.17589         2.05761
O         35.74498        28.95862         2.88930
H         36.64615        28.60906         3.07565
O         35.28680        43.52079        -2.68996
H         35.94228        43.92432        -3.29520
O         39.55479        25.62400         1.43992
H         38.71653        25.25154         1.78728
