         732
 CSIRO Nanostructure Databank - Neutral Graphene Oxide Data Set
C         22.96311        24.51235         0.68668
C         21.72690        25.20446         0.73659
C         22.88520        27.31534         0.33466
C         21.69314        26.57021         0.59628
C         22.86434        28.73409         0.35655
C         21.83480        29.45337         1.05640
C         22.83779        31.65759         0.51797
C         21.82340        30.80944         1.17223
C         23.01247        33.08337         1.01189
C         21.72168        33.87081         1.01337
C         23.01584        35.95823         1.06771
C         21.75367        35.21554         1.05842
C         23.05847        37.33455         1.39998
C         21.86750        38.06409         1.79591
C         23.13895        40.20205         2.07438
C         21.87765        39.38611         2.07001
C         23.01597        41.58328         1.46019
C         21.77148        42.12890         1.15874
C         22.85839        44.19719         0.53942
C         21.70192        43.41453         0.62257
C         22.86640        46.48261         0.92456
C         21.79040        47.18143         1.38097
C         23.21378        48.85037         2.42281
C         21.97693        48.32821         2.23190
C         25.44445        23.03006         0.01169
C         25.45502        24.44060         0.54414
C         24.14079        25.17812         0.40979
C         25.34170        27.28527        -0.06501
C         24.13085        26.59643         0.17218
C         25.30933        28.70898        -0.40538
C         23.98902        29.47434        -0.21028
C         25.33675        31.68526        -0.10787
C         24.03033        30.97255        -0.09906
C         25.36783        33.07897         0.09325
C         24.06560        33.85868         0.17218
C         25.44462        35.93294         0.69522
C         24.20369        35.26695         0.72134
C         25.49308        37.33879         0.94880
C         24.29494        38.04955         1.31381
C         25.48172        40.21609         1.23928
C         24.31939        39.45625         1.51368
C         25.45452        41.61687         1.14693
C         24.20796        42.33193         1.21910
C         25.36509        44.57294         1.01475
C         24.14506        43.73358         0.89214
C         25.43074        45.96267         1.15096
C         24.27046        46.90261         1.12618
C         25.74477        48.85231         2.00826
C         24.39655        48.27661         1.75626
C         25.82697        50.26453         2.19787
C         27.88809        23.05812        -0.09263
C         26.61019        22.37516        -0.18483
C         27.88076        24.48891        -0.13133
C         26.65649        25.20078         0.03697
C         27.81922        27.32957        -0.36611
C         26.60769        26.59598        -0.10756
C         27.78836        28.77025        -0.42156
C         26.56268        29.48855        -0.37637
C         27.80232        31.59660        -0.30537
C         26.55321        30.90343        -0.25755
C         27.83201        33.01759         0.10344
C         26.59471        33.79436         0.19878
C         27.90583        35.92245         0.37628
C         26.66538        35.20103         0.42612
C         27.92604        37.34859         0.55002
C         26.72863        38.02921         0.85372
C         28.00620        40.24037         0.73473
C         26.75721        39.47930         1.10362
C         27.92181        41.67945         0.44749
C         26.57389        42.37551         0.47087
C         27.85484        44.42944         0.96701
C         26.62620        43.81740         0.94506
C         27.99298        45.83727         1.42581
C         26.70023        46.56838         1.79141
C         28.14786        48.76578         1.56563
C         26.86997        48.09359         1.73036
C         28.18538        50.21974         1.60374
C         27.00853        50.92489         2.00062
C         30.36865        20.22666        -0.04399
C         29.17484        20.92950         0.02593
C         30.35154        23.08711        -0.14450
C         29.12329        22.35767        -0.05662
C         30.32833        24.46136        -0.40723
C         29.09675        25.19526        -0.37738
C         30.26971        27.38507        -0.56570
C         29.05330        26.63139        -0.48133
C         30.24899        28.77227        -0.53712
C         29.01220        29.49522        -0.53466
C         30.23503        31.65047        -1.07169
C         28.99709        30.91824        -0.57169
C         30.21646        33.14186        -0.78026
C         29.13606        33.77978        -0.02551
C         30.31525        35.94319        -0.23417
C         29.12222        35.25240         0.00126
C         30.44967        37.33460         0.30518
C         29.15527        38.09591         0.33820
C         30.38095        40.22792        -0.04771
C         29.18222        39.47825         0.28755
C         30.33171        41.64819        -0.15709
C         29.05114        42.36808         0.05684
C         29.91025        44.70667        -0.23670
C         28.97886        43.82455         0.25547
C         30.47811        45.83347         0.60268
C         29.28420        46.58246         1.20865
C         30.59734        48.70829         0.99386
C         29.30156        48.05654         1.20596
C         30.60631        50.25192         0.97732
C         29.33114        50.93923         1.18467
C         30.41939        53.02201         0.49027
C         29.30534        52.34085         0.91539
C         32.88755        18.76262        -0.53339
C         32.85240        20.12435        -0.14756
C         31.62370        20.86289        -0.08778
C         32.80153        22.99703        -0.72518
C         31.67411        22.37135         0.11050
C         32.88643        24.49859        -0.50067
C         31.59038        25.18427        -0.71359
C         32.82377        27.40549        -0.43202
C         31.56637        26.68827        -0.73451
C         32.80049        28.80252        -0.24299
C         31.50060        29.51989        -0.28794
C         32.85374        31.63620        -0.61455
C         31.51584        31.01003        -0.50439
C         33.09563        32.85372        -1.22457
C         31.20955        33.95264        -1.24764
C         32.75425        35.91531        -0.77418
C         31.47545        35.29139        -0.76706
C         32.78132        37.33530        -0.55273
C         31.62211        38.06457        -0.27391
C         32.80916        40.21484        -0.47713
C         31.59922        39.50921        -0.29466
C         32.81037        41.60145        -0.33307
C         31.58425        42.31167        -0.35419
C         32.82678        44.48235        -0.50131
C         31.73464        43.69926        -0.71102
C         32.73807        45.96836        -0.78726
C         31.58183        46.66956        -0.03687
C         32.86068        48.77884        -0.15381
C         31.67929        48.01120         0.23854
C         32.88125        50.22644        -0.08043
C         31.71939        50.95761         0.32113
C         32.84541        53.09678        -0.16519
C         31.66079        52.35934         0.19664
C         32.86408        54.51474        -0.28000
C         35.27662        18.18088        -0.16405
C         34.04224        17.97767        -0.77574
C         35.26733        20.30944         0.43219
C         34.09691        20.87560        -0.01824
C         35.37965        23.07311        -0.29641
C         34.12363        22.28320        -0.49691
C         35.34215        24.54552        -0.15350
C         34.04815        25.21641        -0.33553
C         35.21881        27.39100         0.00058
C         34.03151        26.68125        -0.25927
C         35.22076        28.80576         0.03155
C         33.99776        29.51403        -0.03575
C         35.28884        31.69257        -0.07127
C         33.96878        31.01660         0.20123
C         35.32637        33.08865        -0.37300
C         34.15064        33.72395        -0.87584
C         35.33264        35.90431        -0.77931
C         34.06454        35.20348        -1.22762
C         35.36573        37.35922        -0.63177
C         34.07444        38.08825        -0.53949
C         35.37143        40.26544        -0.70031
C         34.05747        39.53457        -0.98302
C         35.37044        41.58776        -0.27498
C         34.08532        42.30549        -0.09696
C         35.33956        44.54504        -0.34907
C         34.08030        43.83023        -0.09146
C         35.29831        45.95168        -0.51836
C         34.05818        46.65660        -0.54038
C         35.28624        48.77519        -0.81715
C         34.03380        48.06545        -0.49283
C         35.28289        50.27630        -0.79620
C         34.04536        50.96627        -0.40183
C         35.29377        53.10752        -0.58547
C         34.06297        52.38752        -0.36729
C         35.28381        54.52447        -0.65320
C         34.03322        55.19886        -0.52741
C         37.94992        16.28398        -2.01745
C         36.69747        16.74557        -1.64575
C         37.78886        18.20842        -0.07146
C         36.57318        17.68719        -0.59629
C         37.77198        20.31037         0.59744
C         36.54738        20.97885         0.39428
C         37.80923        23.04352         0.25688
C         36.58968        22.36792         0.16193
C         37.77690        24.51434         0.55293
C         36.47513        25.20948         0.20616
C         37.73592        27.36106        -0.01804
C         36.46803        26.68929         0.47440
C         37.70395        28.80030        -0.06613
C         36.48274        29.52141         0.08281
C         37.73348        31.65988         0.06508
C         36.48939        30.95403         0.04505
C         37.76742        33.10106        -0.08090
C         36.55776        33.79641        -0.38130
C         37.79054        35.92704        -0.72158
C         36.57033        35.22500        -0.65252
C         37.86985        37.34495        -1.25074
C         36.59524        38.11919        -0.96233
C         37.88179        40.12304        -1.46233
C         36.58345        39.48977        -1.01110
C         37.80594        41.80624         0.28762
C         36.56661        42.39955        -0.04639
C         37.79511        44.54284        -0.30054
C         36.55606        43.82421        -0.26010
C         37.78763        45.96491        -0.42243
C         36.55551        46.67333        -0.52398
C         37.78433        48.80808        -0.58008
C         36.57030        48.07592        -0.65278
C         37.77591        50.26903        -0.61399
C         36.57109        50.97839        -0.65579
C         37.76386        53.11445        -0.78573
C         36.54234        52.40245        -0.65696
C         37.72817        54.52848        -0.96076
C         36.52139        55.24053        -0.86667
C         37.71626        57.39364        -1.00070
C         36.56665        56.68663        -0.84531
C         40.49785        14.96386        -2.41822
C         40.43137        16.20633        -1.75016
C         39.14412        16.83433        -1.49355
C         40.26755        18.76000        -0.30780
C         39.06878        17.95547        -0.61601
C         40.22758        20.10828         0.10166
C         39.01651        20.89796         0.29246
C         40.26654        23.06833         0.06515
C         39.03415        22.33190         0.23573
C         40.20428        24.51122        -0.09752
C         38.99742        25.22549         0.03545
C         40.16726        27.32904        -0.58211
C         38.92438        26.63633        -0.17727
C         40.17101        28.84348        -0.51357
C         38.91929        29.52652        -0.16014
C         40.20577        31.59383         0.27697
C         38.92978        30.91770         0.03639
C         40.21036        33.12221         0.29450
C         38.97966        33.79960        -0.08907
C         40.19816        35.98745        -0.05086
C         39.08373        35.17255        -0.69982
C         40.28199        37.43245        -0.33219
C         39.11317        38.11406        -0.77822
C         40.27493        40.26265        -0.44973
C         39.12059        39.50731        -0.86208
C         40.26293        41.68851        -0.25572
C         39.04256        42.43320        -0.07057
C         40.27249        44.56388        -0.35225
C         39.03340        43.84195        -0.26279
C         40.26750        45.97447        -0.38009
C         39.01751        46.69122        -0.40766
C         40.25533        48.84919        -0.06926
C         38.99691        48.10610        -0.42413
C         40.25724        50.30302        -0.46869
C         39.01945        50.99562        -0.59987
C         40.25559        53.12848        -0.82948
C         39.01047        52.40834        -0.75978
C         40.26546        54.52794        -1.09259
C         38.98071        55.21608        -1.31523
C         40.28003        57.44582        -1.28253
C         38.97616        56.74276        -1.38346
C         40.31385        58.84718        -1.21116
C         42.89016        14.93708        -2.18231
C         41.71239        14.32332        -2.61689
C         42.85276        16.15848        -1.50301
C         41.61547        16.80625        -1.24830
C         42.75670        18.76707        -0.31199
C         41.56299        18.12791        -0.59779
C         42.81092        20.17215         0.12138
C         41.48743        20.89006         0.27250
C         42.71481        23.02062        -0.25477
C         41.48797        22.36185         0.04976
C         42.64012        24.43881        -0.63770
C         41.42558        25.22076        -0.37527
C         42.69332        27.35162        -0.53891
C         41.45778        26.61139        -0.50730
C         42.67320        28.80234        -0.38084
C         41.46117        29.53111        -0.31290
C         42.68378        31.63195         0.02608
C         41.47106        30.90281        -0.00522
C         42.68929        33.08847         0.10475
C         41.50796        33.79332         0.13459
C         42.74492        35.99185         0.19106
C         41.48272        35.25512         0.25374
C         42.73390        37.39725         0.12382
C         41.48952        38.12229        -0.10691
C         42.71525        40.27923        -0.06905
C         41.50528        39.55935        -0.21341
C         42.73597        41.68594        -0.22809
C         41.49524        42.40540        -0.28468
C         42.74597        44.54272        -0.38807
C         41.51129        43.83646        -0.32784
C         42.75783        45.97465        -0.46881
C         41.51388        46.70011        -0.43553
C         42.73698        48.83645        -0.50229
C         41.51604        48.10430        -0.43279
C         42.71289        50.24856        -0.43528
C         41.48095        50.99622        -0.48064
C         42.69988        53.17166        -0.74391
C         41.48606        52.43389        -0.65450
C         42.70231        54.53348        -1.07307
C         41.47700        55.24257        -1.21818
C         42.72716        57.41310        -1.38066
C         41.49017        56.70419        -1.33796
C         42.72225        58.81915        -1.30641
C         41.52951        59.52930        -1.20945
C         45.35416        16.03205        -0.90252
C         44.15738        16.88482        -1.27976
C         45.32112        18.82169        -0.33611
C         44.05046        17.99400        -0.24144
C         45.27139        20.25094        -0.36117
C         44.04660        20.94016        -0.19339
C         45.19821        23.10243        -0.59111
C         43.97065        22.35362        -0.33709
C         45.20703        24.48774        -0.70483
C         43.94653        25.22340        -0.83167
C         45.17457        27.32677        -0.32189
C         43.93018        26.67242        -0.58872
C         45.12300        28.74611         0.05929
C         43.88259        29.51111        -0.18582
C         45.16075        31.67092        -0.14919
C         43.89072        30.91482        -0.07059
C         45.16601        33.12236         0.11174
C         43.95110        33.81470         0.15426
C         45.19593        35.93768         0.31557
C         43.95468        35.24599         0.22281
C         45.18048        37.37271         0.27005
C         43.98642        38.08814         0.17369
C         45.22228        40.28792        -0.14334
C         43.98245        39.58985         0.36825
C         45.22715        41.66851        -0.27347
C         43.97770        42.40663        -0.27201
C         45.22662        44.54334        -0.44126
C         43.98365        43.81749        -0.36797
C         45.22756        45.96038        -0.53256
C         43.98558        46.68445        -0.53555
C         45.21696        48.82814        -0.66600
C         43.99614        48.12161        -0.57578
C         45.24551        50.26386        -0.58119
C         43.98274        50.96629        -0.29542
C         45.25177        53.14697        -0.73444
C         43.97881        52.49215        -0.43966
C         45.24542        54.65652        -0.78733
C         43.99973        55.17915        -1.51129
C         45.19136        57.30968        -1.72567
C         43.99266        56.69516        -1.49695
C         46.47794        16.65993        -0.50541
C         47.76907        18.83822        -0.59459
C         46.52255        18.12446        -0.44044
C         47.72678        20.25529        -0.74659
C         46.49164        20.97355        -0.61682
C         47.62677        23.07590        -1.14466
C         46.45170        22.38918        -0.72105
C         47.72162        24.56709        -1.28370
C         46.43944        25.28422        -0.94566
C         47.65718        27.37335        -0.20886
C         46.42301        26.69068        -0.45804
C         47.68661        28.74295         0.10250
C         46.41890        29.47345         0.24456
C         47.69226        31.67456         0.26469
C         46.45400        30.93637        -0.03981
C         47.66292        33.05637         0.38699
C         46.40618        33.79808         0.32651
C         47.64649        35.92032         0.92953
C         46.39709        35.19140         0.49355
C         47.70052        37.21448         0.15337
C         46.49085        38.07774         0.23965
C         47.71629        40.29010        -0.48911
C         46.50113        39.55596        -0.05606
C         47.70885        41.72459        -0.40733
C         46.47789        42.40619        -0.36075
C         47.70015        44.53576        -0.49924
C         46.46502        43.82997        -0.42471
C         47.68019        45.94831        -0.63371
C         46.47066        46.66414        -0.63688
C         47.66640        48.82429        -0.81380
C         46.47722        48.11554        -0.73499
C         47.68404        50.28952        -1.13950
C         46.42629        50.99479        -0.71018
C         47.71606        53.21217        -0.60391
C         46.42819        52.42927        -0.70789
C         47.75748        54.43039        -1.53863
C         46.49481        55.26142        -1.41645
C         46.42109        56.54906        -1.83658
C         50.20403        18.92938        -0.90943
C         49.02586        18.20797        -0.70965
C         50.22013        20.32423        -1.12372
C         48.91979        20.94750        -1.12346
C         50.56151        23.36579        -1.40510
C         48.70702        22.28961        -1.52344
C         50.36778        24.63716        -0.89894
C         49.04905        25.32661        -1.08975
C         50.15932        27.26185         0.23290
C         48.96276        26.70908        -0.48896
C         50.12337        28.75056         0.56817
C         48.88854        29.49682         0.28085
C         50.16026        31.61031         0.42719
C         48.90728        30.90701         0.35284
C         50.16380        33.03319         0.45169
C         48.91725        33.78063         0.53161
C         50.19788        35.94818         0.82449
C         48.92247        35.14691         0.70199
C         50.18661        37.20211        -0.03135
C         48.87174        37.57465        -0.46465
C         50.19033        40.28476        -0.91847
C         48.85524        39.70064        -0.97922
C         50.20380        41.71353        -0.59626
C         48.95931        42.41688        -0.50903
C         50.20570        44.51770        -0.47474
C         48.95189        43.83075        -0.49978
C         50.22347        45.93890        -0.51859
C         48.96253        46.63837        -0.84755
C         50.19459        48.86980        -0.61663
C         48.95753        48.13450        -0.91572
C         50.19864        50.26835        -0.64082
C         48.96944        51.00398        -0.76790
C         50.21155        53.11763        -0.69849
C         48.98884        52.39786        -0.72178
C         50.15521        54.56081        -0.84152
C         49.02895        55.20198        -1.23674
C         52.73045        20.37767        -0.94396
C         51.51242        21.06124        -1.10907
C         52.80248        23.16055        -0.59822
C         51.61700        22.49510        -1.02676
C         52.76372        24.56820        -0.31062
C         51.53074        25.27592        -0.33887
C         52.65429        27.31101         0.51589
C         51.47486        26.62361         0.11080
C         52.63562        28.74376         0.70304
C         51.39943        29.46906         0.61338
C         52.66407        31.55042         0.29582
C         51.37870        30.85991         0.46933
C         52.65299        33.05214         0.23752
C         51.38288        33.76406         0.42390
C         52.63617        35.88940         0.35479
C         51.42539        35.15904         0.51398
C         52.61414        37.31720         0.19156
C         51.36540        37.95780        -0.16776
C         52.64088        40.19158        -0.12281
C         51.45340        39.40928        -0.57721
C         52.64550        41.61304        -0.17182
C         51.42942        42.36685        -0.38845
C         52.64662        44.50737        -0.17291
C         51.42394        43.79792        -0.32422
C         52.63849        45.93296        -0.20451
C         51.41258        46.64374        -0.36374
C         52.68586        48.81921        -0.43336
C         51.39481        48.13072        -0.09400
C         52.68768        50.24787        -0.55075
C         51.45279        50.98286        -0.55444
C         52.71245        53.06984        -0.72525
C         51.46027        52.40333        -0.64254
C         53.95194        21.04620        -0.73523
C         55.30058        23.23115        -0.48591
C         54.01559        22.42232        -0.52204
C         55.15364        24.52873         0.27717
C         53.95423        25.22352         0.19847
C         55.09545        27.30603         0.96362
C         53.89209        26.61480         0.58902
C         55.07945        28.72625         1.10597
C         53.85717        29.43978         0.88962
C         55.04674        31.60060         0.98145
C         53.89372        30.87614         0.75282
C         55.09711        33.04062         0.81880
C         53.89192        33.78377         0.52115
C         55.17753        35.88783         0.30149
C         53.86777        35.16727         0.43360
C         55.07888        37.38395         0.49859
C         53.84556        38.05686         0.28107
C         55.05102        40.21624         0.47442
C         53.83467        39.49511         0.23401
C         55.05631        41.64674         0.42635
C         53.85083        42.34718         0.11701
C         55.06618        44.50252         0.29781
C         53.85686        43.77873         0.06828
C         55.08314        45.94343         0.08076
C         53.87553        46.64981        -0.16223
C         55.14923        48.73152        -0.53575
C         53.89218        48.07617        -0.38438
C         55.22505        50.21556        -0.83720
C         53.91313        50.95063        -0.66815
C         53.90058        52.35356        -0.75735
C         57.65271        23.12867         0.29834
C         56.54267        22.47132        -0.13944
C         57.62731        24.49840         0.70453
C         56.29657        25.09290         1.08344
C         57.47675        27.27358         1.63372
C         56.31567        26.60801         1.17471
C         57.45326        28.72179         1.78248
C         56.27684        29.41941         1.45438
C         57.50458        31.64425         1.46582
C         56.19908        30.92018         1.67721
C         57.50719        33.04134         1.30833
C         56.27678        33.74360         1.06134
C         57.54188        35.95291         1.03988
C         56.22057        35.25007         1.20886
C         57.52866        37.34700         0.90724
C         56.27791        38.08282         0.71775
C         57.48665        40.24023         0.95661
C         56.27324        39.51355         0.71848
C         57.45809        41.64406         1.04987
C         56.25928        42.37257         0.72848
C         57.43568        44.59105         1.01553
C         56.23794        43.80013         0.66637
C         57.50648        46.04475         0.62333
C         56.30367        46.66476         0.04800
C         57.65549        48.76705        -0.50491
C         56.33936        48.02345        -0.33809
C         57.50254        50.14189         0.12389
C         56.36402        50.82395        -0.04188
C         60.07502        24.53977         1.06408
C         58.79679        25.17073         1.14750
C         59.77523        26.79671         2.62827
C         58.68177        26.44670         1.80997
C         59.71819        29.06446         2.88940
C         58.63299        29.54497         2.15180
C         59.91459        31.67972         1.93255
C         58.69728        30.94370         1.80335
C         59.94892        33.08645         1.59060
C         58.74127        33.78283         1.34904
C         59.99084        35.91331         1.17255
C         58.75448        35.21486         1.18148
C         59.99067        37.35714         1.10218
C         58.76174        38.07500         0.99584
C         59.96624        40.18258         1.22966
C         58.74752        39.50415         1.06540
C         60.03681        41.65333         1.55643
C         58.68646        42.37835         1.46882
C         59.99069        44.55836         0.99576
C         58.71816        43.87491         1.31428
C         60.02200        45.97185         0.71031
C         58.82161        46.69906         0.45105
C         60.12430        48.66177        -0.13462
C         58.88016        48.02430        -0.00831
C         61.15984        25.01096         1.78139
C         60.99232        26.11100         2.63666
C         60.91530        29.79086         3.06966
C         61.03875        31.05564         2.52968
C         61.17453        33.80886         1.53287
C         61.19436        35.16648         1.30672
C         61.19705        38.08689         1.21369
C         61.17691        39.46604         1.28975
C         61.11607        42.38495         0.79400
C         61.12108        43.74776         0.68620
C         61.25938        46.65805         0.59926
C         61.30286        47.98768         0.20254
O         37.74428        18.99708         1.08585
O         27.69691        39.90781         2.15661
O         40.16636        32.33337         1.53705
O         49.17976        26.51576        -1.93033
O         24.41659        29.01976        -1.53192
O         31.57736        25.91877        -1.99477
O         28.75368        33.18532         1.25918
O         24.37672        48.12704         0.27500
O         40.53123        35.67262         1.32281
O         34.79626        37.83727         0.69973
O         35.17951        49.54223        -2.07722
O         37.92359        40.95618        -2.35600
O         22.94067        31.53680        -0.93786
O         49.05556        47.30888        -2.17495
O         42.26174        20.46139         1.46228
O         30.63151        44.29255        -1.36152
O         28.95710        46.00907         2.54319
O         43.99686        51.84179         0.88585
O         35.01199        22.53906        -1.64287
O         40.05588        28.13785        -1.80336
O         49.65562        22.88297        -2.34786
O         31.30701        30.46199         0.84639
O         51.10101        39.78763        -1.94472
O         38.89053        55.92797        -2.60063
O         45.64989        29.06197         1.42243
O         49.89771        27.71263         1.59576
O         31.06677        49.47389         2.14479
O         46.66851        39.04259         1.37102
O         59.63471        27.83776         3.55908
O         46.90887        25.12834        -2.34943
O         57.20880        45.63762         2.02049
O         45.92287        31.28386        -1.36923
O         22.64474        45.46513        -0.00303
O         35.25544        19.00910         0.97890
O         52.75137        32.24594        -1.00263
O         32.14380        33.37673        -2.13307
O         34.04616        43.07895         1.16258
O         48.76978        38.44678        -1.56084
O         58.54195        43.24088         2.65144
O         43.16817        24.74269        -1.97536
O         33.91050        39.47929        -2.43740
H         33.97953        40.39103        -2.79014
O         44.01842        17.36079         1.06951
H         43.80057        18.05063         1.73182
O         36.45306        26.87980         1.92900
H         37.02565        26.17526         2.32025
O         60.49359        41.69230         2.94208
H         60.02785        42.46090         3.35711
O         32.46895        46.14633        -2.21427
H         31.64866        45.63827        -2.41159
O         44.04792        39.77149         1.82927
H         44.95464        39.47499         2.09830
O         32.03546        22.61561         1.50251
H         31.36561        22.18054         2.07074
O         25.65383        24.31553         2.00447
H         26.50474        23.84600         2.13903
O         34.07150        35.30584        -2.69187
H         33.34248        34.72653        -3.01440
O         55.90589        31.08174         3.12204
H         56.61404        30.61161         3.61288
O         51.27193        48.21956         1.39452
H         52.09288        47.83654         1.77326
O         23.48857        32.97299         2.37552
H         23.56235        33.87846         2.74466
O         57.88891        48.94874        -1.92822
H         57.15260        49.51542        -2.27590
O         30.24235        31.44381        -2.50563
H         30.95402        32.01545        -2.87733
O         39.52005        34.96337        -2.09642
H         39.03246        35.61585        -2.65705
O         55.63180        35.68144        -1.06827
H         54.92500        35.98839        -1.67386
O         26.47276        46.28826         3.20925
H         27.35954        46.29777         3.63952
O         31.17247        45.14390         1.68064
H         30.56090        45.13644         2.45814
O         47.52350        36.17641         2.35407
H         48.38192        36.57256         2.63983
O         23.57282        34.05807        -1.17360
H         23.31774        33.16766        -1.52605
O         26.15972        42.42183        -0.94748
H         26.80144        42.99127        -1.42341
O         37.83828        40.66946         1.02434
H         36.92871        40.39698         1.26816
O         55.57616        50.36925        -2.26266
H         54.85091        49.96911        -2.78810
O         33.72222        31.23213         1.62637
H         32.79552        30.92902         1.79677
O         44.15521        54.77142        -2.90641
H         43.38288        55.10933        -3.40687
O         55.78554        35.49371         2.58184
H         56.42727        35.06186         3.18378
O         40.25789        48.87541         1.41699
H         41.06734        49.35623         1.69548
O         30.80992        37.13899         1.73214
H         30.07699        36.64071         2.15422
O         47.83034        53.93384        -2.89749
H         47.51604        54.63579        -3.50373
O         37.87817        24.58532         2.03576
H         38.73235        24.17449         2.29134
O         44.45199        17.53582        -2.54955
H         44.48993        16.84523        -3.24364
O         23.45926        40.44417         3.49589
H         23.70714        39.58255         3.89310
O         47.71208        53.77280         0.75307
H         47.72024        53.02455         1.38715
O         50.29611        36.40462         2.23238
H         50.60334        35.64223         2.76811
O         47.66739        50.32844        -2.61850
H         48.27933        49.63013        -2.93915
O         56.05721        24.61767         2.47456
H         56.75376        25.01933         3.03772
O         38.00438        37.23318        -2.71631
H         37.99589        38.14077        -3.09208
O         32.42891        22.80091        -2.10400
H         33.23296        22.97316        -2.64364
O         55.49583        23.63544        -1.90007
H         54.69944        24.14135        -2.17125
O         45.19946        55.10996         0.58754
H         46.03432        54.79300         1.01051
H         22.97166        23.43359         0.89466
H         20.80056        24.64343         0.92214
H         20.73080        27.09641         0.65462
H         21.05629        28.87622         1.57520
H         21.07325        31.29645         1.81125
H         20.75993        33.33677         1.02353
H         20.80730        35.77289         1.08973
H         20.91790        37.51769         1.88141
H         20.95168        39.86450         2.42087
H         20.85007        41.54775         1.29198
H         20.74265        43.84527         0.30956
H         20.77666        46.85672         1.11472
H         23.36044        49.67911         3.12889
H         21.10100        48.77500         2.72232
H         24.49027        22.49603        -0.10270
H         24.92304        50.83039         2.45956
H         26.59400        21.31633        -0.48077
H         27.04203        52.01385         2.13403
H         30.32075        19.12804        -0.04654
H         28.23845        20.36071         0.09878
H         30.34211        54.10714         0.34155
H         28.37544        52.90542         1.06557
H         31.93990        18.32421        -0.88291
H         31.93331        55.08686        -0.16848
H         33.93871        17.15135        -1.49623
H         33.98991        56.29265        -0.61200
H         38.00141        15.48042        -2.76250
H         35.79899        16.31778        -2.11109
H         37.70194        58.47857        -0.82570
H         35.65008        57.23893        -0.59717
H         39.58350        14.47926        -2.78252
H         39.37895        59.42160        -1.17335
H         43.85689        14.45581        -2.38917
H         41.75072        13.35444        -3.13273
H         43.66995        59.37328        -1.31588
H         41.54427        60.62620        -1.15272
H         45.32136        14.93565        -0.98294
H         45.26231        58.39970        -1.84834
H         47.38368        16.08304        -0.26775
H         47.30579        57.06453        -2.24195
H         51.14374        18.36140        -0.90525
H         49.09984        17.11724        -0.59906
H         51.07044        55.14813        -0.67653
H         49.05135        56.29191        -1.38765
H         52.76731        19.28193        -1.00544
H         52.75242        54.16431        -0.80258
H         54.86845        20.44045        -0.70106
H         54.85012        52.89551        -0.86999
H         58.59456        22.56561         0.37537
H         56.61654        21.41107        -0.41855
H         58.34263        50.57685         0.68674
H         56.23931        51.82810         0.39042
H         60.19297        23.63426         0.45595
H         60.16891        49.69414        -0.50746
H         62.12725        24.49360         1.72848
H         61.80108        26.44609         3.29796
H         61.73891        29.33222         3.63170
H         61.98004        31.60578         2.65648
H         62.12932        33.27878         1.64913
H         62.16699        35.67295         1.25537
H         62.16019        37.56683         1.29213
H         62.11794        40.00881         1.44904
H         62.01396        41.82742         0.49163
H         62.00800        44.23322         0.25323
H         62.19601        46.14134         0.84756
H         62.26984        48.50417         0.12675
