         324
 CSIRO Nanostructure Databank - Neutral Graphene Oxide Data Set
C         30.28501        57.08090         0.65476
C         30.28467        58.48668         0.74338
C         29.05755        59.21983         0.82630
C         30.27005        61.31897         1.00271
C         29.06763        60.60180         0.96523
C         32.77927        52.85752        -0.44214
C         32.72808        54.28357        -0.24154
C         31.54490        54.91486         0.12190
C         32.66712        57.15264         0.03385
C         31.57569        56.30351         0.70990
C         32.81813        58.51258         0.73413
C         31.50524        59.23838         0.77255
C         32.75545        61.38877         0.86512
C         31.51453        60.64837         0.88394
C         35.24688        48.58293        -0.58171
C         35.18511        49.98738        -0.66817
C         33.99442        50.72360        -0.55857
C         35.24180        52.87747        -0.69193
C         33.97835        52.15009        -0.57333
C         35.18483        54.38005        -0.90515
C         33.95917        55.04131        -0.33789
C         35.19313        57.15128        -0.15579
C         33.98370        56.42069        -0.11863
C         35.20349        58.62144        -0.17077
C         33.91361        59.35873         0.11497
C         35.20400        61.46615         0.39052
C         33.96660        60.79119         0.49921
C         37.61520        44.18249        -0.34415
C         37.27957        45.49157         0.01503
C         36.31908        46.39713        -0.49037
C         37.71924        48.52421        -0.32951
C         36.44600        47.82137        -0.42202
C         37.73272        49.96242        -0.72970
C         36.44087        50.72380        -0.91017
C         37.71335        52.93248        -1.03285
C         36.42645        52.20728        -0.82976
C         37.71969        54.42293        -0.85688
C         36.45644        55.08998        -0.51242
C         37.65585        57.20443         0.05881
C         36.44943        56.46177        -0.22344
C         37.64030        58.60159         0.24150
C         36.45611        59.34916         0.04793
C         37.67680        61.48043         0.25058
C         36.43691        60.77898         0.21213
C         40.21382        40.02422        -0.19645
C         40.18246        41.43820        -0.13338
C         38.96475        42.16238        -0.17488
C         40.13973        44.30605         0.07386
C         38.89380        43.56882        -0.06934
C         40.19147        45.72963         0.00130
C         39.10695        46.54908         0.28834
C         40.24015        48.57778        -0.41526
C         38.97805        47.90797        -0.14751
C         40.22394        50.02380        -0.68197
C         38.95787        50.76756        -0.31486
C         40.26056        52.94777        -0.48619
C         39.01003        52.20000        -0.82985
C         40.25348        54.34293        -0.27739
C         39.00277        55.11329        -0.47096
C         40.19121        57.12254         0.58293
C         38.90176        56.42823         0.23144
C         40.17692        58.60636         0.77096
C         38.86618        59.34600         0.62249
C         40.15256        61.46268         0.40491
C         38.91215        60.80794         0.37462
C         42.65776        35.73422        -0.15285
C         42.64112        37.15968        -0.24413
C         41.46144        37.87932        -0.25474
C         42.65541        40.04386        -0.24571
C         41.43331        39.32128        -0.25729
C         42.65156        41.44455        -0.07302
C         41.41819        42.15910        -0.04235
C         42.63863        44.27755         0.09024
C         41.39934        43.58462         0.04321
C         42.62719        45.77136         0.29261
C         41.47017        46.38924        -0.48363
C         42.70971        48.60255        -0.31343
C         41.44841        47.89927        -0.38634
C         42.74755        50.03410        -0.34099
C         41.51948        50.78504        -0.65050
C         42.68581        52.91835        -0.13606
C         41.47124        52.23776        -0.37936
C         42.69460        54.33553        -0.00175
C         41.45674        55.04151         0.00577
C         42.66448        57.17509         0.33018
C         41.47154        56.46022         0.25580
C         42.64805        58.63448         0.45200
C         41.43137        59.34393         0.54066
C         42.64483        61.46268         0.40241
C         41.40907        60.76863         0.47790
C         45.11736        32.92733         0.27250
C         43.90780        33.60014         0.02272
C         45.05435        35.74054         0.50658
C         43.83900        35.00671         0.06871
C         45.07581        37.23235         0.35311
C         43.97524        37.82453        -0.53007
C         45.05638        39.99414         0.36789
C         43.98775        39.38558        -0.57078
C         45.13228        41.48599         0.12675
C         43.90221        42.16915         0.01835
C         45.12814        44.30975         0.02450
C         43.87706        43.59511         0.04745
C         45.11591        45.74238        -0.06418
C         43.92940        46.45435        -0.02533
C         45.15344        48.58564         0.14170
C         43.91729        47.88530        -0.11669
C         45.14092        50.03060         0.22592
C         43.92500        50.74255        -0.07763
C         45.12203        52.90884         0.00466
C         43.92166        52.19419        -0.06504
C         45.15814        54.33272         0.06366
C         43.92862        55.04561         0.09559
C         45.14479        57.16620         0.29403
C         43.92468        56.47440         0.21626
C         45.12347        58.61410         0.57039
C         43.86217        59.35612         0.46893
C         45.14204        61.49338         0.33514
C         43.87687        60.77950         0.42823
C         46.30696        33.60235         0.52836
C         47.54188        35.73711         0.64831
C         46.34895        35.02560         0.59259
C         47.59905        37.17129         0.53970
C         46.38753        37.91293         0.36593
C         47.61195        40.01915         0.32989
C         46.39122        39.30120         0.28815
C         47.62439        41.45082         0.23465
C         46.35938        42.18150         0.12583
C         47.61771        44.34271         0.04201
C         46.35832        43.60293         0.03320
C         47.63505        45.70855         0.02799
C         46.39716        46.48087        -0.35405
C         47.56391        48.49867         0.70582
C         46.35217        47.87701         0.19797
C         47.52899        50.06382         0.86827
C         46.33204        50.73532         0.40565
C         47.66212        52.90829         0.03638
C         46.38244        52.15146        -0.00968
C         47.65339        54.38301         0.11508
C         46.40740        55.05184         0.12665
C         47.63728        57.18017         0.17529
C         46.39554        56.47893         0.21837
C         47.60858        58.64462        -0.00554
C         46.40696        59.38769         0.45762
C         47.64616        61.53242         0.21738
C         46.35977        60.85561         0.27939
C         48.81149        37.88069         0.57135
C         50.06738        40.01980         0.49779
C         48.84390        39.29434         0.45364
C         50.08595        41.41664         0.40846
C         48.84444        42.12039         0.24546
C         50.00438        44.21500         0.86170
C         48.93635        43.59529        -0.04469
C         50.06088        45.72747         0.71875
C         48.94613        46.46354        -0.02034
C         50.06861        48.62607         0.63568
C         48.87536        47.89013         0.49245
C         50.09378        50.01632         0.85000
C         48.83860        50.78364         0.90808
C         50.18107        52.84134         0.12104
C         48.87501        52.23926         0.58498
C         50.15012        54.36995         0.17845
C         48.88841        55.07416         0.16293
C         50.13021        57.24246         0.12609
C         48.87622        56.50846         0.14463
C         50.15278        58.65328         0.07544
C         48.89936        59.41282        -0.09299
C         50.14566        61.64246         0.24217
C         48.84335        60.87424         0.15401
C         51.32620        42.16126         0.48094
C         52.56916        44.28278         0.70226
C         51.35372        43.54077         0.63967
C         52.63672        45.68806         0.77691
C         51.35949        46.44629         0.78008
C         52.66664        48.60770         0.57520
C         51.36394        47.90320         0.42773
C         52.68725        50.03719         1.00869
C         51.35821        50.75897         1.09566
C         52.64812        52.86047         0.46249
C         51.34467        52.29489         0.99022
C         52.64181        54.34428         0.22654
C         51.34500        55.07540         0.22376
C         52.60382        57.22001         0.18735
C         51.36880        56.51835         0.19538
C         52.61673        58.64554         0.15636
C         51.38176        59.37041         0.13473
C         52.62315        61.46013         0.05980
C         51.40089        60.79866         0.11908
C         53.85228        46.40821         0.78030
C         55.10938        48.55521         0.75581
C         53.91873        47.82813         0.76071
C         55.19124        49.99785         0.74121
C         53.97818        50.76858         0.90976
C         55.02034        53.01450         1.02056
C         53.90982        52.17897         0.85829
C         55.10809        54.38184         0.61163
C         53.89189        55.10302         0.38109
C         55.09936        57.21470         0.26000
C         53.87075        56.50954         0.26773
C         55.11604        58.62978         0.10898
C         53.85654        59.35958         0.12500
C         55.13676        61.55218         0.05102
C         53.84879        60.76098         0.04892
C         56.44493        50.58086         0.39647
C         57.63933        52.82260        -0.01895
C         56.78007        51.93706         0.63821
C         57.58221        54.26063         0.12126
C         56.38036        54.99363         0.46449
C         57.64297        57.18520         0.05521
C         56.37314        56.47052         0.40814
C         57.50540        58.52117        -0.63483
C         56.31407        59.32104        -0.17780
C         57.50627        61.37013        -0.77051
C         56.35148        60.73617        -0.33811
C         58.72037        54.97233        -0.33935
C         59.96760        57.07137        -0.73587
C         58.82710        56.38865        -0.35747
C         60.09459        58.55066        -0.47825
C         58.79107        59.28231        -0.65362
C         59.96097        61.31832        -1.29271
C         58.75872        60.65781        -0.91337
C         61.20840        59.22464        -1.22803
C         61.13483        60.56374        -1.52968
O         48.80841        51.85619         1.98148
O         37.21155        50.20657        -2.05970
O         44.71746        36.65206         1.63337
O         34.28804        59.12870        -1.26161
O         52.08671        48.34097        -0.76091
O         52.03453        50.26998         2.31061
O         45.93983        58.95586         1.77252
O         57.26534        57.12117         1.44250
O         38.07268        46.03297         1.06282
O         39.41913        59.01864         1.94947
O         38.50523        52.44336        -2.16418
O         47.20213        52.36487        -1.24546
O         40.86270        50.41152        -1.92606
O         47.36261        49.17226         1.99538
O         52.70378        53.34338        -0.91472
O         38.52971        55.15729        -1.85727
O         48.12434        59.05412        -1.31168
O         56.09493        52.51558         1.74398
O         50.49885        46.31096         1.98441
O         39.42602        56.38419         1.60040
O         42.35316        46.01575         1.70424
H         43.09255        45.64093         2.22719
O         41.67311        46.06214        -1.88181
H         41.06842        46.61387        -2.42077
O         46.50402        46.62027        -1.83245
H         46.18958        45.77965        -2.22945
O         32.17139        57.40210        -1.29881
H         32.84928        57.94563        -1.76820
O         44.55189        39.79781         1.71744
H         45.27351        39.99164         2.35105
O         49.41543        43.72490        -1.40995
H         48.78398        43.26699        -2.00217
O         44.32419        37.37328        -1.88083
H         44.03059        36.44120        -1.97307
O         49.59590        43.91894         2.21492
H         50.01389        44.60230         2.78935
O         51.23753        52.85433         2.31229
H         50.46375        52.42662         2.75165
O         35.06936        54.55190        -2.36840
H         35.92380        54.27670        -2.76738
O         50.15989        62.69529        -0.73534
H         50.04438        62.29014        -1.61932
O         31.85089        56.06906         2.12503
H         32.36095        56.84377         2.47250
O         50.31217        52.39513        -1.23857
H         51.13816        52.79102        -1.61144
O         55.01711        62.72339        -0.76264
H         54.79556        62.44427        -1.67413
O         38.91983        50.87954         1.13411
H         38.90550        49.97590         1.51645
O         57.23516        58.16715        -2.05094
H         57.21876        59.00449        -2.56226
O         33.27499        58.29571         2.11518
H         33.16612        59.14192         2.59984
O         49.34579        46.52537        -1.41833
H         48.53660        46.74652        -1.93762
O         44.31756        39.83897        -1.89941
H         44.25034        39.06284        -2.50308
O         60.45729        58.67429         0.96527
H         60.45468        59.63100         1.18342
H         29.32574        56.54236         0.70478
H         28.10357        58.67472         0.78690
H         30.25332        62.41359         1.10371
H         28.11520        61.14561         1.04084
H         31.83754        52.29255        -0.36799
H         30.61828        54.32432         0.20223
H         32.72458        62.46815         1.07360
H         34.29473        48.03122        -0.54703
H         33.04273        50.18787        -0.42166
H         35.23334        62.55002         0.57693
H         36.89858        43.59421        -0.93751
H         35.42715        45.99769        -0.99711
H         37.66510        62.58074         0.22978
H         39.26671        39.46471        -0.21567
H         38.02809        41.59880        -0.30366
H         40.17372        62.55847         0.30215
H         41.70341        35.19091        -0.23411
H         40.50577        37.34259        -0.15182
H         42.63813        62.56098         0.33676
H         45.12907        31.82913         0.22230
H         43.00742        33.02284        -0.23204
H         45.10325        62.59113         0.26094
H         47.24174        33.03582         0.64834
H         48.49014        35.18275         0.71983
H         47.65024        62.63042         0.30156
H         49.75691        37.33372         0.70355
H         51.01185        39.46843         0.61933
H         50.18297        62.15462         1.24422
H         52.27192        41.59814         0.43277
H         53.51535        43.72104         0.63757
H         52.63969        62.55921         0.02735
H         54.79709        45.84247         0.79052
H         56.06096        48.00118         0.76269
H         55.30479        61.92151         1.10365
H         57.17513        49.94094        -0.12208
H         58.39458        52.41795        -0.70944
H         57.49433        62.45911        -0.92365
H         59.59309        54.38685        -0.66761
H         60.85033        56.51631        -1.08992
H         59.94880        62.39734        -1.49926
H         62.14197        58.66859        -1.39812
H         62.00570        61.06964        -1.97257
