         268
 CSIRO Nanostructure Databank - Neutral Graphene Oxide Data Set
C        -11.09520         0.54038         0.62805
C         -9.92404         1.38782         0.26490
C         -8.65759         0.64971         0.00865
C         -7.39618         1.45281         0.00064
C         -6.12402         0.83752        -0.49029
C         -4.81250         1.59484        -0.36411
C         -3.56353         0.77793        -0.02953
C         -2.28066         1.61452         0.00938
C         -0.96390         0.90695         0.00222
C          0.33936         1.58806         0.39332
C          1.24588         0.84274         1.35625
C          2.51609         1.59760         1.65663
C          3.81139         0.83082         1.73389
C          5.08027         1.51208         1.29522
C          6.43770         0.80742         1.17718
C          7.24648         1.19246        -0.06124
C          8.62200         0.58814        -0.05116
C          9.68556         1.19020        -0.89776
C         10.78441         0.29981        -1.35652
C         -9.80519         2.87369         0.39205
C         -8.59812         3.54036         0.57707
C         -7.45379         2.60755         1.01666
C         -5.99611         2.99351         1.26730
C         -4.91578         2.99050         0.21702
C         -3.66560         3.76349         0.53997
C         -2.34378         3.06810         0.44880
C         -1.16537         3.70241         1.17651
C          0.17718         3.10270         0.72846
C          1.40174         3.88280         1.09604
C          2.62971         3.17562         1.69089
C          3.91763         3.81464         1.16716
C          5.09169         2.96391         0.81880
C          5.74823         3.29332        -0.53694
C          7.03652         2.48281        -0.80101
C          8.21462         3.12109        -1.47469
C          9.39450         2.46830        -1.59125
C         -8.52344         4.96239         0.38626
C         -7.44066         5.84028         0.61892
C         -6.28684         5.45658         1.50995
C         -4.92049         5.90281         1.08630
C         -3.76166         5.19395         0.96867
C         -2.49798         5.90589         0.56840
C         -1.20708         5.24001         1.00706
C          0.04569         6.06105         1.02436
C          1.40885         5.41208         1.32504
C          2.53139         5.91711         0.36703
C          3.86969         5.27526         0.71113
C          5.02641         5.81232        -0.05934
C          5.83047         4.83695        -0.92666
C          7.11134         5.43907        -1.49109
C          8.06971         4.47025        -2.16341
C         -7.45509         7.20821         0.29738
C         -6.23134         8.01715         0.31318
C         -4.92511         7.33320         0.62947
C         -3.67605         8.17956         1.00131
C         -2.50840         7.37916         0.36915
C         -1.23765         8.15718         0.15628
C          0.04090         7.32229         0.14453
C          1.29666         8.18367         0.25811
C          2.58312         7.43929         0.29731
C          3.65218         7.91806        -0.64027
C          4.98169         7.22966        -0.59070
C          6.09654         7.74528        -1.43507
C          7.17013         6.78034        -1.79378
C         -6.21401         9.49662         0.32728
C         -5.06432        10.21653         0.40202
C         -3.73696         9.61564         0.49560
C         -2.58501        10.32127         0.30058
C         -1.25511         9.65255         0.11349
C          0.08017        10.41661         0.19826
C          1.25465         9.57523        -0.30153
C          2.32035        10.07482        -0.97610
C          3.49557         9.22413        -1.35080
C          4.71693         9.74683        -2.03280
C          5.84756         9.01849        -2.17419
C        -11.05901        -0.80553         0.50044
C         -9.81138        -1.59333         0.25109
C         -8.53227        -0.82858         0.16672
C         -7.33311        -1.45723        -0.49252
C         -6.10452        -0.64240        -0.80622
C         -4.75102        -1.29941        -1.02969
C         -3.45591        -0.54748        -0.81762
C         -2.11522        -1.28795        -0.76792
C         -0.86772        -0.58342        -0.29338
C          0.32125        -1.35135         0.26532
C          1.08782        -0.69994         1.42309
C          2.42698        -1.41309         1.73563
C          3.73884        -0.67896         1.86721
C          5.06687        -1.42732         1.81196
C          6.35728        -0.71923         1.45874
C          7.57604        -1.52742         1.05448
C          8.68893        -0.88243         0.28585
C          9.51227        -1.74986        -0.65875
C         10.73485        -1.03094        -1.18914
C         -9.82296        -2.92642        -0.40772
C         -8.70225        -3.53923        -0.86570
C         -7.34583        -2.95740        -0.58967
C         -6.06562        -3.58709        -1.08477
C         -4.74757        -2.80907        -0.92390
C         -3.42796        -3.52689        -0.87022
C         -2.10306        -2.80029        -0.86968
C         -0.87239        -3.58073        -0.43710
C          0.29463        -2.86155         0.21593
C          1.17383        -3.65771         1.16369
C          2.36558        -2.93899         1.73280
C          3.66348        -3.67524         1.99062
C          4.99108        -2.95371         1.90180
C          6.26295        -3.74934         1.61124
C          7.50710        -3.03721         1.15005
C          8.55235        -3.80454         0.40877
C          9.83928        -3.10938        -0.00376
C         -8.80102        -4.90561        -1.53664
C         -7.45338        -5.60442        -1.68650
C         -6.37475        -4.63607        -2.15904
C         -4.46000        -5.65200        -1.95051
C         -3.32350        -4.96006        -1.31127
C         -2.19160        -5.78895        -0.74379
C         -0.97444        -5.08247        -0.21658
C         -0.03770        -5.77810         0.71116
C          1.10366        -5.15698         1.16479
C          2.27080        -5.91241         1.71201
C          3.66822        -5.22870         1.91380
C          4.75817        -5.78535         0.97285
C          6.15458        -5.29445         1.44304
C          7.22189        -5.90232         0.52472
C          8.38483        -5.12070         0.14200
C         -7.35512        -6.94193        -1.53908
C         -6.12160        -7.72940        -1.76576
C         -4.87367        -7.00199        -2.06116
C         -3.04904        -8.06541        -1.49648
C         -2.64171        -7.16152        -0.27443
C         -1.54388        -7.93368         0.45912
C         -0.28752        -7.22917         0.92401
C          0.93067        -8.09672         1.17982
C          2.24587        -7.40179         1.41007
C          3.40098        -7.98272         0.65564
C          4.67806        -7.20435         0.53621
C          5.95662        -8.04751         0.56388
C          7.11263        -7.19219         0.12103
C         -6.08559        -9.16821        -1.43202
C         -4.97038        -9.90204        -1.20949
C         -3.61558        -9.39637        -1.01891
C         -2.71172       -10.10948        -0.29627
C         -1.52975        -9.43821         0.32504
C         -0.23428       -10.14361         0.42489
C          0.92103        -9.52481         0.76901
C          2.23930       -10.28182         0.82068
C          3.37226        -9.42271         0.26098
C          4.64813       -10.03020        -0.21295
C          5.80761        -9.35761        -0.17894
O          5.12220         3.75454         2.02028
O          4.95182         5.97201         1.38590
O          2.88510        -8.39790        -0.66778
O         -7.07575        -0.94965        -1.84529
O         -2.69545         6.49896        -0.76178
O          1.49778         1.30861         2.68884
O          7.33414        -3.44540         2.54702
O          0.02708        -7.72074         2.25382
O          2.93893        -1.01202         3.04131
O         -7.90122         2.01716         2.25010
O         -2.46765        -7.98494        -2.57224
O         -5.27986         7.42889        -0.73799
O          2.12377         8.15341         1.47734
O          6.04221         8.01828         0.03191
O          0.94534         3.77453        -0.28984
O         -0.97729        -5.79992        -1.51687
O         -8.88893        -1.45025         1.42130
O         -1.49596         1.56469        -1.20066
O          9.66907         1.37095         0.58044
O         -1.12485        -0.77929        -1.70313
O         -1.12686        -3.26166        -1.82590
O          8.82671        -1.09577         1.71226
O          5.27057         4.96053        -2.22529
O         -6.27280        -4.34297        -3.35103
O         -0.78448         5.98945         2.21401
O          6.65544         1.15992        -1.37355
O         -3.50179        -5.09747        -2.77997
O         -4.94023         2.76283        -1.21280
O         -5.49974        -7.49364        -3.16728
O          5.98324        -0.94486         2.84393
O         -3.48366         8.16883         2.35189
O          6.27827        -5.86870         2.71389
O          4.36439        -3.26084         3.19319
O         -6.53311         5.07464         2.64171
O         -2.80992         3.83123        -0.67291
O         -4.14378        -3.24096         0.35795
O          1.11737        -2.06319        -0.70577
O         -1.31305         8.87167        -1.13650
O          4.69303         1.43832         2.71306
O          1.22648        -3.28650         2.58576
O          3.07986         7.95441        -1.99189
O         -6.98700         1.65161        -1.35729
O         -9.49874         1.02128        -1.12446
O          4.57143        -6.06125        -0.41371
O         -6.57915        -3.85394         0.25828
O         -4.05225        -0.64448        -2.12885
O          2.22478        -6.92199         2.77237
O         -2.05914        -8.75906         1.54328
O          2.38425         5.47185        -0.98717
H          1.56717         5.86109        -1.38965
O          4.15707        -5.69926         3.17403
H          4.46349        -4.91702         3.70769
O          1.13500         1.47048        -0.80981
H          0.60868         1.82602        -1.56157
O          0.08162         6.75606        -1.19577
H         -0.31135         7.41606        -1.81562
O          1.80072         5.80165         2.62983
H          1.01881         5.76920         3.22098
O          4.74069         2.73548        -1.41060
H          4.62748         3.37515        -2.16583
O         -5.53640         2.80475         2.39460
H         -7.26456         2.29969         2.95279
O          8.62824        -2.00965        -1.78660
H          9.17024        -2.27775        -2.55773
O         10.70445        -2.94238         1.11344
H         10.23490        -2.38096         1.77646
O          2.52653       -10.64869         2.17453
H          2.41107        -9.86720         2.75461
O          7.23997         1.34815         2.23868
H          6.79745         1.11297         3.08559
O          0.20960        -0.90549         2.54553
H          0.69751        -0.60605         3.34751
O         -3.81145         0.32552         1.33262
H         -3.92841         1.09433         1.93504
O         -9.74041        -5.72489        -0.85011
H         -9.48753        -5.76171         0.09520
O         -3.76852        -6.99943         0.59849
H         -3.65042        -7.63620         1.34416
O          6.15310        -8.42972         1.94758
H          6.31011        -7.59237         2.47125
O          0.34582        10.78888         1.55462
H          0.84734        10.06985         1.99493
O          2.57833         3.47643         3.09472
H          3.44770         3.21361         3.47434
O          9.34119         5.09200        -2.32998
H          9.74127         5.23281        -1.44708
O         -1.33515         3.38098         2.56850
H         -0.93296         4.10322         3.10322
H         11.58238        -1.65612        -1.51138
H         11.67446         0.76885        -1.80425
H         10.21279         2.94782        -2.15239
H          7.66682         4.27971        -3.19541
H          8.04759         7.15163        -2.34837
H          6.67558         9.42442        -2.77615
H          4.63975        10.72418        -2.53406
H          2.32177        11.12821        -1.29874
H         -0.00862        11.35816        -0.40269
H         -2.63809        11.39436         0.05231
H         -5.12420        11.31525         0.35392
H         -7.18107        10.01595         0.25648
H         -8.40272         7.69209         0.00706
H         -9.40089         5.40559        -0.11655
H        -10.70869         3.46755         0.17534
H        -12.03906         1.03717         0.89851
H        -11.97809        -1.38347         0.68504
H        -10.79781        -3.41286        -0.56916
H         -9.20182        -4.75046        -2.57617
H         -8.25389        -7.49887        -1.22327
H         -7.05871        -9.68317        -1.42278
H         -5.10014       -10.97540        -0.99396
H         -2.96131       -11.11957         0.07153
H         -0.21152       -11.20098         0.11929
H          2.15621       -11.22917         0.23210
H          4.59103       -11.02642        -0.67801
H          6.72279        -9.82227        -0.57646
H          7.90309        -7.63550        -0.50471
H          9.17427        -5.66065        -0.40538
H         10.37375        -3.75313        -0.75029
