         404
 CSIRO Nanostructure Databank - Neutral Graphene Oxide Data Set
C          1.43097         3.34284         0.59324
C          0.28392         4.00345         0.97153
C          1.39858         6.18745         0.82207
C          0.26120         5.41430         1.04659
C          1.22142         7.66344         0.73490
C          0.05380         8.29431         0.24388
C          1.17932        10.47947         0.14503
C          0.01217         9.67967         0.07239
C          1.18456        11.94038         0.01558
C         -0.04918        12.68762         0.11743
C          1.11826        14.84534         0.18850
C         -0.07781        14.05114         0.24028
C          1.14736        16.23239         0.38057
C         -0.08129        17.00089         0.47230
C          1.13045        19.05572         1.22002
C         -0.10148        18.31523         0.77485
C          1.13400        20.53617         0.88866
C         -0.06046        21.25411         0.76862
C          1.13748        23.37198         0.56675
C         -0.06488        22.63594         0.59071
C          1.14231        24.81824         0.43904
C         -0.04520        25.55771         0.23187
C          1.16317        27.68266         0.28140
C         -0.03386        26.93743         0.12199
C          1.19464        29.13686         0.04894
C          0.00348        29.86612        -0.25430
C          1.21321        31.98508        -0.48750
C          0.02398        31.25002        -0.44157
C          1.23897        33.41603        -0.68508
C          0.09064        34.11173        -1.17790
C          1.32206        36.20915        -1.21623
C          0.13219        35.46192        -1.43354
C          1.38740        37.59474        -1.53613
C          3.78547         3.37533        -0.10201
C          2.62917         4.07111         0.32090
C          3.89692         6.14230         0.27413
C          2.64163         5.50251         0.51068
C          4.17028         7.49540         0.69719
C          2.28816         8.53159         1.00554
C          3.70431        10.45516         0.12975
C          2.39524         9.83888         0.49752
C          3.68005        11.94675        -0.17140
C          2.38092        12.64176        -0.04710
C          3.67468        14.87920        -0.07602
C          2.35783        14.11427        -0.13525
C          3.63885        16.29475         0.33255
C          2.40098        16.96373         0.49564
C          3.61482        19.08250         0.85633
C          2.40395        18.35663         0.79865
C          3.61435        20.52349         0.93098
C          2.36846        21.23852         0.84097
C          3.60966        23.38065         0.69691
C          2.36596        22.66137         0.70070
C          3.59432        24.79934         0.67153
C          2.37364        25.53294         0.55409
C          3.56835        27.73341         0.87226
C          2.35154        26.96948         0.54155
C          3.61156        29.22105         0.59682
C          2.40335        29.83820         0.05824
C          3.68912        31.99716         0.04956
C          2.51796        31.22665        -0.51611
C          3.57972        33.44938         0.18467
C          2.41262        34.15150        -0.40450
C          3.65983        36.31176        -0.45563
C          2.47118        35.55119        -0.67495
C          3.72860        37.66563        -0.85640
C          2.55867        38.29740        -1.38136
C          6.17898         3.39242        -0.84534
C          4.97778         4.04632        -0.46164
C          6.14811         6.21995        -0.72309
C          4.98531         5.47436        -0.33213
C          6.07264         7.70771        -0.76191
C          5.07879         8.32795         0.13097
C          6.21961        10.56050        -0.19843
C          5.07210         9.80709         0.46434
C          6.16556        11.99371        -0.08677
C          4.95960        12.69829        -0.03266
C          6.11998        14.86916         0.18126
C          4.94239        14.12813         0.06914
C          6.10655        16.29320         0.32914
C          4.86517        16.98958         0.50415
C          6.10409        19.09433         0.89221
C          4.86548        18.39390         0.74567
C          6.11811        20.53558         0.99441
C          4.84550        21.24060         0.91592
C          6.11972        23.33072         0.52849
C          4.83646        22.64561         0.77553
C          6.14131        24.83528         0.43645
C          4.87364        25.52914         0.81264
C          6.10151        27.75504         0.47183
C          4.87738        27.01341         0.91619
C          6.11570        29.23713         0.54754
C          4.91787        29.91984         0.46435
C          6.13850        32.08863         0.47193
C          4.88390        31.36011         0.36381
C          6.14797        33.50313         0.43378
C          4.85723        34.23007         0.47509
C          6.13412        36.46430         0.18856
C          4.82998        35.71095         0.21325
C          6.17737        37.77740        -0.49798
C          4.97548        38.37303        -0.86237
C          8.61649         3.46529        -1.28664
C          7.37388         4.11745        -1.06260
C          8.58064         6.33907        -1.16539
C          7.32010         5.56030        -1.04610
C          8.51669         7.79154        -1.53317
C          7.27241         8.52017        -1.12404
C          8.60282        10.65660        -0.96408
C          7.36015         9.93214        -0.68038
C          8.61797        12.04549        -0.69646
C          7.45579        12.69856        -0.08617
C          8.59582        15.02356        -0.23791
C          7.42810        14.20211         0.11791
C          8.58370        16.36950         0.06321
C          7.32842        17.00626         0.42163
C          8.59825        19.01703         1.08732
C          7.31639        18.37229         0.77824
C          8.60391        20.51902         1.27495
C          7.33521        21.24023         1.06612
C          8.56392        23.40347         0.99380
C          7.38662        22.66149         0.86177
C          8.59255        24.84960         0.86631
C          7.41111        25.54556         0.66651
C          8.64546        27.76389         0.61602
C          7.39789        27.00364         0.43636
C          8.60762        29.21243         0.58212
C          7.38266        29.92748         0.52079
C          8.60784        32.07853         0.41672
C          7.37390        31.36516         0.49211
C          8.60719        33.50588         0.31801
C          7.38066        34.20968         0.36176
C          8.69900        36.38220        -0.01769
C          7.40829        35.69005         0.37429
C          8.65620        37.76359        -0.56973
C          7.42885        38.40495        -0.75616
C         11.05449         3.45906        -1.52758
C          9.85944         4.14627        -1.41425
C         11.09112         6.42043        -1.70264
C          9.88408         5.63395        -1.30913
C         11.07861         7.78840        -1.73805
C          9.79516         8.55327        -1.69489
C         10.98766        10.81009        -1.84611
C          9.78631         9.99841        -1.39142
C         11.07778        12.19401        -1.22026
C          9.76940        12.87366        -1.08575
C         11.05901        15.08573        -0.86300
C          9.75285        14.35673        -0.85867
C         11.07448        16.51245        -0.39127
C          9.82208        17.14137         0.09234
C         11.15492        19.06065         1.06292
C          9.85801        18.38186         0.66074
C         11.09589        20.57822         0.97219
C          9.89295        21.23359         1.10306
C         11.13343        23.46508         1.16997
C          9.82818        22.69362         1.28216
C         11.07488        24.92432         0.94765
C          9.85587        25.59819         0.91721
C         11.05706        27.81203         1.06293
C          9.81383        27.05083         0.83501
C         11.08148        29.25467         0.75577
C          9.84809        29.94223         0.59006
C         11.08995        32.05818         0.30446
C          9.84554        31.35948         0.43491
C         11.09626        33.44851         0.01786
C          9.85550        34.19723         0.03303
C         11.06293        36.16666        -0.95776
C          9.86886        35.54879        -0.28387
C         11.10401        37.67911        -0.88645
C          9.88324        38.38738        -0.87763
C         13.55772         3.51834        -1.10690
C         12.34796         4.15777        -1.63953
C         13.57916         6.37099        -1.30638
C         12.37239         5.66445        -1.78352
C         13.63968         7.82118        -1.59641
C         12.34425         8.54561        -1.95409
C         13.60675        10.75366        -1.49044
C         12.33277        10.05497        -1.87338
C         13.51370        12.07123        -0.72351
C         12.26061        12.87630        -1.01788
C         13.52864        15.00696        -0.70956
C         12.30879        14.30674        -0.81628
C         13.57224        16.43818        -0.38956
C         12.36739        17.13730        -0.04548
C         13.59644        19.20164         0.39313
C         12.38105        18.45413         0.41343
C         13.58852        20.61486         0.55429
C         12.33846        21.32201         0.79945
C         13.51001        23.46198         0.23263
C         12.33186        22.71028         0.79586
C         13.51804        24.92734         0.58715
C         12.35210        25.60048         0.84311
C         13.60943        27.80734         0.82974
C         12.36480        27.06077         1.07027
C         13.57219        29.23747         0.78161
C         12.31762        29.93885         0.68572
C         13.56070        32.03913         0.27786
C         12.32568        31.34810         0.42238
C         13.56924        33.43054        -0.03158
C         12.33303        34.12930        -0.18907
C         13.56291        36.19195        -0.70608
C         12.35484        35.50666        -0.55353
C         13.57186        37.61685        -0.99872
C         12.33075        38.32566        -1.03013
C         15.86462         3.45400        -0.33615
C         14.65345         4.22502        -0.67441
C         15.74106         6.51714        -0.21555
C         14.62745         5.70505        -0.70370
C         15.91869         7.89711        -0.57694
C         14.83050         8.59183        -1.16774
C         16.07943        10.70424        -0.98150
C         14.85976         9.98878        -1.20569
C         15.99289        12.15645        -1.12732
C         14.77965        12.86308        -0.93582
C         16.00716        15.01577        -0.95268
C         14.75027        14.26551        -0.85166
C         16.04387        16.49340        -0.69580
C         14.79060        17.14258        -0.26521
C         16.05711        19.23911         0.16997
C         14.82031        18.52108         0.09038
C         16.07087        20.62559         0.38795
C         14.81981        21.34353         0.48117
C         16.03898        23.49606         0.58286
C         14.81928        22.75974         0.49521
C         16.05085        24.91315         0.64994
C         14.79644        25.66687         0.28165
C         16.04871        27.79134         0.86184
C         14.80120        27.10664         0.71556
C         16.04334        29.24129         0.80907
C         14.79746        29.93691         0.65605
C         16.03639        32.02295         0.24183
C         14.80290        31.34115         0.41116
C         16.04531        33.41342        -0.08622
C         14.80543        34.11293        -0.22167
C         16.04097        36.17656        -0.74601
C         14.80982        35.49932        -0.54690
C         16.03642        37.58058        -1.07427
C         14.79083        38.27200        -1.16943
C         18.06517         3.43977         1.01090
C         16.71566         3.83580         0.65893
C         17.90619         6.56693         0.97526
C         16.62830         6.00685         0.72052
C         18.11428         7.92289         0.58502
C         17.08715         8.61207        -0.16153
C         18.54045        10.59262        -0.18886
C         17.24616         9.98950        -0.51988
C         18.94247        11.84892        -0.69230
C         17.16466        12.94782        -1.33559
C         18.52961        14.93294        -0.56785
C         17.26747        14.26912        -0.96900
C         18.53564        16.43042        -0.58553
C         17.36165        17.11385        -0.41991
C         18.62698        19.25521         0.20427
C         17.33584        18.49662         0.11002
C         18.57078        20.72637         0.30414
C         17.31656        21.37097         0.42899
C         18.50896        23.52140         0.64728
C         17.28800        22.78661         0.57847
C         18.48755        24.91665         0.92135
C         17.26188        25.62648         0.88520
C         18.47228        27.80186         1.40254
C         17.23657        27.07031         1.01762
C         18.50562        29.34034         1.32820
C         17.24744        29.94980         0.77048
C         18.51770        31.99046         0.19699
C         17.27207        31.32808         0.42278
C         18.52163        33.36905        -0.18133
C         17.27820        34.08458        -0.29066
C         18.50801        36.15208        -0.86613
C         17.27547        35.47303        -0.63250
C         18.49180        37.54777        -1.19156
C         17.25524        38.23836        -1.28185
C         18.97363         4.31860         1.54030
C         20.11586         6.46165         1.94959
C         18.94720         5.77636         1.55615
C         20.25490         7.83269         1.75224
C         19.29290         8.57868         1.03642
C         20.57280        10.73567         1.16892
C         19.47813         9.97488         0.69086
C         20.72526        12.08714         0.86507
C         19.90119        12.68580        -0.10934
C         21.06673        14.97850        -0.36099
C         19.80964        14.19333        -0.22740
C         21.07877        16.31126        -0.54881
C         19.84942        17.13565        -0.61068
C         21.11898        19.39005        -0.02218
C         19.88620        18.62116        -0.31822
C         21.04919        20.72126         0.20475
C         19.78833        21.45424         0.27770
C         20.92506        23.69043         0.15331
C         19.76036        22.85897         0.41215
C         20.92645        25.00391         0.46676
C         19.81208        25.53541         1.33185
C         21.00672        27.85398         1.31749
C         19.76373        27.05934         1.48521
C         20.98090        29.15273         0.89612
C         19.77104        29.90269         0.71218
C         20.95652        31.94020        -0.08899
C         19.75804        31.25056         0.27806
C         20.95059        33.27413        -0.42376
C         19.74803        34.03592        -0.46072
C         20.94230        36.16171        -1.03252
C         19.75022        35.44781        -0.78980
C         20.92037        37.52623        -1.34185
C         19.71879        38.21854        -1.42357
O          8.62841        19.61253         2.44155
O         10.55176        23.12377         2.48249
O         13.21368         8.04996        -2.99920
O          9.41936         6.10026         0.02997
O          6.18006         8.30668        -2.10017
O         11.72529        27.45993         2.33290
O         13.19053        10.70519        -2.88411
O          5.05023        26.20650         2.12426
O         18.91678        14.62236         0.86405
O         15.95915        16.00727        -2.08521
O          3.40216        28.68391         1.96879
O          8.94447         8.14529        -2.87295
O          5.28907        36.47804         1.38190
O         12.54894         4.81745        -2.96553
O         18.09104        18.58036         1.39190
O          3.95099        33.87505         1.55608
O          8.26670        36.28264         1.39449
O          6.10710        24.03931        -0.78103
O         19.84537        18.14461        -1.70351
O         19.00579        27.36628         2.72588
O          3.67906        10.93602        -1.24289
O         13.41696        11.74692         0.64823
O         18.29954        12.31405        -1.84040
O         16.24535         4.89483         1.46932
O          7.75558        13.30623         1.24788
O         11.05362        16.18965        -1.83384
O          3.01197        14.61992        -1.36376
O          6.64072        27.31006        -0.81880
O          3.37019         8.01006         1.73146
O          9.42168        13.81102        -2.19151
O         14.84184        25.75330        -1.19876
H         14.43515        24.92046        -1.54720
O          5.29469         9.97149         1.88753
H          4.68537         9.34829         2.34814
O          1.12105        19.00421         2.69569
H          1.13615        18.05844         2.95463
O         10.90035        35.86450        -2.39786
H         11.69189        36.21807        -2.85742
O         20.09551        25.01577         2.66982
H         19.52775        25.52830         3.29000
O          2.83935        31.05526        -1.96078
H          2.06644        30.61705        -2.37777
O         18.53091        29.84370         2.70374
H         18.93499        29.12498         3.24886
O         10.66940        11.10244        -3.23972
H         11.52458        11.27835        -3.69783
O         11.30075        18.76444         2.48957
H         10.48296        19.10286         2.92959
O         13.34319        23.42774        -1.25447
H         13.44837        22.49245        -1.53582
H          1.43454         2.24930         0.47959
H         -0.63673         3.44040         1.17834
H         -0.68957         5.91251         1.28351
H         -0.84098         7.69829         0.01481
H         -0.93838        10.13915        -0.23177
H         -0.99717        12.13418         0.16235
H         -1.04825        14.54533         0.38610
H         -1.02965        16.49914         0.23277
H         -1.07224        18.82813         0.82098
H         -1.02790        20.73830         0.82540
H         -1.03201        23.14786         0.50254
H         -1.00575        25.03597         0.12738
H         -0.98270        27.45214        -0.07767
H         -0.97003        29.36002        -0.24402
H         -0.94044        31.77208        -0.51832
H         -0.83165        33.55376        -1.38848
H         -0.75401        35.97565        -1.83330
H          0.49096        38.08999        -1.93634
H          3.74726         2.27705        -0.16014
H          2.61209        39.35810        -1.66559
H          6.19805         2.29399        -0.90526
H          4.99151        39.38575        -1.29300
H          8.62886         2.36518        -1.32167
H          7.42139        39.41453        -1.19475
H         11.05465         2.35826        -1.50893
H          9.88750        39.46343        -1.11213
H         13.55859         2.42099        -1.01908
H         12.35548        39.42418        -1.09863
H         16.08372         2.56467        -0.94523
H         14.79952        39.35121        -1.38415
H         18.36818         2.39076         0.86948
H         17.25841        39.31045        -1.52944
H         19.94481         3.89174         1.84248
H         20.93866         5.89873         2.41425
H         21.17286         8.32239         2.10450
H         21.27913        10.27651         1.87329
H         21.50333        12.67775         1.36837
H         22.01662        14.42330        -0.34391
H         22.03911        16.83002        -0.68430
H         22.09571        18.88913        -0.08359
H         21.97881        21.28421         0.37074
H         21.77780        23.25088        -0.38468
H         21.78795        25.64048         0.21927
H         21.97050        27.36998         1.53078
H         21.94544        29.65344         0.72498
H         21.91646        31.40677        -0.08032
H         21.90720        33.75389        -0.67083
H         21.91443        35.65420        -0.97643
H         21.86808        38.05266        -1.52216
H         19.70967        39.28987        -1.66997
