         324
 CSIRO Nanostructure Databank - Neutral Graphene Oxide Data Set
C          1.34058         3.29817        -0.08676
C          0.19485         3.96735        -0.44759
C          1.33295         6.13581        -0.39230
C          0.18812         5.37657        -0.60157
C          1.32102         7.60355        -0.50620
C          0.13677         8.33463        -0.75943
C          1.31790        10.46881        -0.58983
C          0.14219         9.72172        -0.82374
C          1.30977        11.92984        -0.54050
C          0.22055        12.69948        -0.99569
C          1.25025        14.83708        -0.39022
C          0.22182        14.11344        -0.97505
C          1.27262        16.28669        -0.25454
C          0.06160        17.01309        -0.45249
C          1.19435        19.10619        -0.02856
C          0.00425        18.37430        -0.23003
C          1.17870        20.54365         0.09436
C          0.02982        21.21483         0.63925
C          0.95318        23.39192         0.05880
C          0.00378        22.57828         0.75885
C          0.65741        24.74507        -0.16923
C         -0.19392        25.65658         0.53426
C          1.24883        27.74153         0.27750
C          0.03133        27.02422         0.56637
C          1.33285        29.13472         0.56999
C          3.75137         3.34891         0.44398
C          2.55700         4.01764         0.13246
C          3.74780         6.15904         0.18203
C          2.55066         5.45147        -0.01773
C          3.78048         7.59961        -0.14760
C          2.51719         8.33335        -0.34210
C          3.72879        10.49093        -0.00555
C          2.52218         9.75526        -0.33203
C          3.65998        11.91165         0.18406
C          2.45594        12.61300        -0.04625
C          3.62153        14.79554         0.47852
C          2.30900        14.06829         0.33915
C          3.61972        16.29436         0.78364
C          2.45411        16.99254         0.08622
C          3.64272        19.20387        -0.05120
C          2.44934        18.42640         0.01869
C          3.58373        20.58984        -0.43677
C          2.30836        21.27080        -0.30082
C          3.43334        23.49000        -0.96895
C          2.13580        22.72417        -0.56574
C          3.58370        24.91514        -0.62797
C          2.50198        25.76476        -0.61435
C          3.70926        27.75654         0.09747
C          2.47881        27.09166        -0.05972
C          3.76877        29.15987         0.29664
C          2.52937        29.83025         0.52596
C          6.17959         3.38408         0.93250
C          4.96112         4.05265         0.64714
C          6.15399         6.20858         0.80471
C          4.95195         5.49070         0.54797
C          6.08404         7.70360         0.99575
C          5.01696         8.37269         0.16531
C          6.16083        10.56141         0.48200
C          4.94333         9.84759         0.26569
C          6.13493        12.00928         0.55797
C          4.84685        12.61522         0.58515
C          6.46242        15.10498         0.76179
C          4.63838        14.00226         0.93177
C          6.28638        16.41380         0.34530
C          4.98442        17.10210         0.61872
C          6.22753        19.34062        -0.11342
C          4.94473        18.56776         0.24945
C          6.02478        20.48379        -1.13318
C          4.75081        21.26903        -0.85577
C          6.00987        23.45323        -1.35106
C          4.70566        22.69975        -1.19396
C          6.08791        24.86862        -0.93162
C          4.90555        25.49859        -0.32100
C          6.16148        27.74054        -0.37550
C          4.95898        26.98627         0.01583
C          6.23051        29.17636        -0.10177
C          5.03244        29.82611         0.26346
C          8.63141         3.43316         1.33037
C          7.37705         4.09204         1.09749
C          8.60223         6.25460         1.19276
C          7.35865         5.52989         1.05083
C          8.59199         7.67767         1.02036
C          7.39661         8.41233         0.80476
C          8.66852        10.51569         0.50663
C          7.37562         9.80491         0.58537
C          8.66932        12.01253         0.31529
C          7.37288        12.77748         0.40379
C          8.65314        14.86612        -0.20443
C          7.44807        14.17162         0.30857
C          8.63990        16.32683        -0.51922
C          7.38641        17.10621        -0.30296
C          8.61341        19.11881        -1.07495
C          7.37681        18.45032        -0.56644
C          8.60162        20.62422        -1.30471
C          7.31633        21.30378        -1.15883
C          8.63312        23.49427        -1.56864
C          7.31858        22.72347        -1.45786
C          8.56464        25.00225        -1.44951
C          7.23697        25.60563        -1.12153
C          9.00589        28.08126        -0.72026
C          7.13584        27.04313        -1.04920
C          8.79267        29.45361        -0.22234
C          7.45899        29.90887        -0.04918
C         11.09827         3.37009         1.72736
C          9.81610         4.13087         1.45093
C         11.09448         6.28095         1.40028
C          9.82884         5.56493         1.35567
C         11.07896         7.68200         1.18282
C          9.85381         8.34533         0.92791
C         11.10378        10.09159        -0.12700
C          9.87214         9.64943         0.38001
C         11.05780        12.20420        -0.57955
C          9.91183        12.74381        -0.09835
C         11.17478        14.96962        -0.04669
C          9.93295        14.20406         0.14554
C         11.14403        16.42028        -0.30287
C          9.92338        17.07982        -0.47060
C         11.08410        19.21728        -0.66463
C          9.91089        18.48663        -0.71603
C         11.14047        20.62706        -1.10759
C          9.87589        21.39786        -1.20151
C         11.18229        23.51764        -1.13541
C          9.91460        22.77760        -1.25088
C         11.16552        25.01683        -1.08374
C          9.83691        25.74887        -1.07683
C         10.92114        27.31964         0.61315
C          9.80839        27.04302        -0.30661
C         11.24277        29.82671        -0.20918
C          9.90213        30.27911         0.04966
C         13.51996         3.46430         1.10868
C         12.36358         4.15348         1.44792
C         13.62220         6.30007         1.53213
C         12.33367         5.57980         1.50784
C         13.65435         7.79070         1.38633
C         12.31033         8.50559         1.21120
C         13.53417        10.58539         0.39903
C         12.34066         9.75861         0.43725
C         13.55953        11.97954         0.06872
C         12.42375        12.77797        -0.47625
C         13.65642        14.99878         0.04455
C         12.44790        14.26717        -0.33163
C         13.61018        16.42991         0.05466
C         12.37140        17.11055        -0.16012
C         13.62909        19.32701        -0.07533
C         12.30365        18.57100        -0.15241
C         13.69352        20.72125        -0.53478
C         12.45994        21.39081        -1.03520
C         13.70909        23.64340        -1.13573
C         12.39309        22.86936        -1.01290
C         13.65673        24.98306        -0.38676
C         12.39400        25.74975        -0.58454
C         13.40129        27.70714         0.77411
C         12.20320        26.97143         0.25474
C         13.45730        29.21113         0.82674
C         12.28765        30.05537         0.68792
C         15.79756         3.42181         0.17668
C         14.76278         4.10613         0.78068
C         15.96438         6.33823         0.47203
C         14.89248         5.54968         1.10879
C         15.98380         7.73462         0.43636
C         14.83219         8.49142         0.86558
C         16.05491        10.60647         0.67088
C         14.77300         9.89623         0.70927
C         16.08023        12.09203         0.64132
C         14.73499        12.80030         0.42284
C         16.07329        14.94823         0.27840
C         14.82658        14.26449         0.18240
C         16.08370        16.37839         0.24739
C         14.84523        17.13265         0.17132
C         16.09246        19.25100         0.03527
C         14.87538        18.54788         0.02067
C         16.12098        20.65440        -0.12656
C         14.90789        21.36940        -0.49735
C         16.15817        23.54554        -0.21970
C         14.96971        22.82526        -0.78210
C         16.07635        24.97905         0.11359
C         14.77260        25.60420         0.13438
C         15.97520        27.74987         0.75910
C         14.71330        26.97249         0.73287
C         15.92514        29.15790         1.07600
C         14.65529        29.81909         1.15606
C         18.09118         3.39839        -1.00100
C         17.07051         4.07525        -0.15382
C         18.00364         6.31311        -1.03040
C         17.10218         5.58977        -0.08374
C         18.11084         7.77809        -0.85900
C         17.13001         8.43277        -0.15741
C         18.35681        10.66717        -0.45399
C         17.28734         9.86930         0.13525
C         18.44456        12.06496        -0.20852
C         17.30945        12.79471         0.28059
C         18.53088        14.92198         0.02817
C         17.30717        14.21650         0.23367
C         18.54563        16.35178         0.12470
C         17.31958        17.05907         0.26324
C         18.60670        19.23642         0.25701
C         17.31426        18.53390         0.55732
C         18.58508        20.66454         0.30420
C         17.34075        21.34333         0.16254
C         18.58491        23.56748         0.58070
C         17.27559        22.77842         0.39800
C         18.54823        25.02587         0.36346
C         17.25750        25.69003         0.33285
C         18.41216        27.93195         0.42217
C         17.18551        27.12728         0.50766
C         18.37962        29.30644         0.94529
C         17.11185        29.88467         1.22012
C         19.09923         4.06784        -1.59350
C         20.30867         6.31379        -2.07440
C         19.08787         5.54948        -1.72811
C         20.35640         7.66017        -2.00247
C         19.19995         8.48619        -1.57058
C         20.58434        10.75209        -1.55863
C         19.33070        10.01824        -1.34364
C         20.72594        12.04275        -1.13521
C         19.64614        12.78033        -0.53666
C         20.93055        14.93503        -0.40186
C         19.72466        14.19399        -0.28864
C         20.96005        16.31164        -0.21065
C         19.79075        17.06106         0.03811
C         21.02634        19.26546         0.15733
C         19.80777        18.51837         0.15289
C         21.03098        20.63465         0.29664
C         19.82477        21.39541         0.36741
C         21.01791        23.60070         0.30927
C         19.84130        22.82426         0.43434
C         20.98283        24.98671         0.33570
C         19.76192        25.71857         0.34892
C         20.91938        27.95493         0.85716
C         19.77864        27.20974         0.33289
C         20.82255        29.29884         1.13132
C         19.58234        29.98628         1.14515
O         13.95445        27.08838         2.00221
O          5.12636        25.95757         1.06684
O          9.31343        25.75237        -2.44141
O          8.57793        15.31037        -1.60136
O          2.42884        23.12000        -1.94720
O          5.04754        18.12605         1.67986
O          8.58570        19.62330        -2.43563
O          1.32826        25.34976        -1.24859
O         12.64873        13.64547        -1.66202
O         15.29896        12.57833         1.77063
O          5.20912        23.11890        -2.53592
O         14.60238         5.84013         2.51257
O         10.64598        14.67822         1.32609
O          4.82731         7.87602        -1.18775
O          5.59910        14.62249         1.73593
O          8.09726        27.78448        -1.74654
O         17.71080        23.18443         1.71678
O         19.13915        27.78728        -0.84455
O         12.03929        25.75233        -2.01068
O          8.88745        11.43128         1.67534
O         17.75823         4.78174         0.95468
O         16.08589        23.21380        -1.66199
O         17.07622        10.10935         1.57775
O         13.01370         8.50546         2.48755
O         18.73040         9.43828        -2.57796
O         11.03296        10.96431        -1.20911
O         17.86039         5.96345        -2.45253
O          7.99739        23.00287        -2.77540
O         12.00003        20.79052        -2.29908
O         12.76413        19.18570         1.11953
O         11.50672        29.09681        -1.31658
H         10.70547        28.97547        -1.86568
O         17.17464        18.62342         2.03394
H         17.93755        18.14994         2.42940
O          5.86690        19.87229        -2.43541
H          5.88621        20.58538        -3.11016
O         11.10926         2.97152         3.11487
H         11.23995         3.77465         3.66031
O          6.69039        20.00107         1.09140
H          6.46495        19.40131         1.84245
O         10.64433        28.09170         1.69273
H         11.46712        28.24224         2.20338
O          1.79695        14.02410         1.73676
H          2.05468        14.87809         2.16323
O         13.80406        23.94874        -2.54354
H         14.76235        24.02184        -2.76080
O          3.26772        16.38811         2.19476
H          3.68220        17.21978         2.53352
O          5.67371         7.92383         2.38578
H          6.39793         7.61104         2.96803
H          1.33732         2.20496         0.03001
H         -0.73666         3.41050        -0.62118
H         -0.75474         5.85913        -0.89257
H         -0.81563         7.80824        -0.90878
H         -0.80571        10.24185        -1.01932
H         -0.64939        12.19724        -1.44122
H         -0.62389        14.63124        -1.45043
H         -0.86208        16.46919        -0.69004
H         -0.95750        18.90124        -0.29527
H         -0.78887        20.61294         1.05588
H         -0.85346        23.07001         1.24090
H         -1.06432        25.26612         1.08417
H         -0.75103        27.63275         1.05001
H          0.40796        29.67459         0.82305
H          3.75038         2.25081         0.51386
H          2.53559        30.91427         0.71095
H          6.18340         2.28638         1.00821
H          5.06261        30.90127         0.49641
H          8.64271         2.33464         1.39571
H          7.35771        30.96220         0.26067
H         11.10291         2.42170         1.13082
H          9.76155        31.17324         0.67537
H         13.46994         2.36930         1.00939
H         12.18375        30.89421         1.39346
H         15.65677         2.37059        -0.11705
H         14.66569        30.91207         1.28786
H         18.07428         2.29790        -1.02595
H         17.06374        30.93970         1.52877
H         19.89616         3.51636        -2.11567
H         21.19890         5.74975        -2.39242
H         21.27419         8.18291        -2.30983
H         21.39755        10.26699        -2.11629
H         21.67450        12.55951        -1.33865
H         21.87308        14.41655        -0.62469
H         21.92848        16.82393        -0.29234
H         21.98887        18.74014         0.09467
H         21.99878        21.15185         0.34789
H         21.99336        23.10516         0.21152
H         21.93176        25.53669         0.27459
H         21.85427        27.42254         1.08241
H         21.72023        29.84161         1.46122
H         19.55957        31.03925         1.46043
