         272
 CSIRO Nanostructure Databank - Neutral Graphene Oxide Data Set
C        -11.00024         0.43193        -1.32194
C         -9.78069         1.20178        -1.08177
C         -8.64058         0.59568        -0.50454
C         -7.43087         1.31680        -0.37896
C         -6.33877         0.89362         0.60814
C         -4.91374         1.12146         0.01108
C         -3.89113         0.79846         1.08983
C         -2.58598         1.51249         1.13660
C         -1.35165         0.83660         1.70495
C         -0.04777         1.57388         1.63919
C          1.26528         0.82796         1.72896
C          2.55167         1.59037         1.62891
C          3.83072         0.83861         1.31835
C          5.06814         1.64294         0.87104
C          6.37346         0.84681         1.06817
C          7.75437         1.56000         1.12951
C          8.78662         0.92235         0.19772
C          9.75899         1.70262        -0.47561
C         10.74531         1.03467        -1.33164
C         -9.72311         2.56229        -1.42625
C         -8.50853         3.26734        -1.38847
C         -7.34413         2.62017        -0.93718
C         -5.99629         3.24195        -1.14096
C         -4.77578         2.52914        -0.60498
C         -3.53946         3.31401        -0.31086
C         -2.47160         2.77361         0.35594
C         -1.23590         3.53299         0.49626
C          0.01441         2.78640         0.76062
C          1.30668         3.47122         0.48359
C          2.50695         3.05932         1.28661
C          3.77228         3.83683         1.15972
C          5.08685         3.09411         1.36113
C          6.36882         3.84335         1.18451
C          7.68301         3.10776         1.02070
C          8.83039         3.86487         0.40710
C          9.80721         3.09081        -0.36773
C         -8.48523         4.70160        -1.85834
C         -7.22373         5.47357        -1.55187
C         -5.92015         4.70077        -1.66543
C         -4.69634         5.48548        -1.14688
C         -3.49941         4.77583        -0.60293
C         -2.50396         5.57935         0.19789
C         -1.21438         4.89105         0.43206
C          0.07382         5.64238         0.47645
C          1.20251         4.84981        -0.19448
C          2.53557         5.60032        -0.33703
C          3.80923         5.10249         0.33217
C          5.06984         5.89922         0.55720
C          6.27935         5.28566         0.78130
C          7.51738         6.05995         0.63853
C          8.74449         5.34887         0.10012
C         -7.21640         6.82285        -1.62304
C         -5.90508         7.57918        -1.72134
C         -4.93035         6.94078        -0.71057
C         -3.65439         7.73306        -0.53468
C         -2.53681         7.07904         0.15814
C         -1.27535         7.86692         0.43827
C          0.05674         7.13512         0.48813
C          1.18356         7.83332        -0.24211
C          2.27305         7.00465        -0.86881
C          3.78791         8.06216         0.94997
C          5.02659         7.37566         0.45842
C          6.28560         8.19827         0.62518
C          7.53799         7.42469         0.70861
C         -5.98334         9.07346        -1.53372
C         -4.88229         9.77270        -1.20325
C         -3.63125         9.12169        -0.78990
C         -2.46632         9.87667        -0.60051
C         -1.25344         9.30640         0.00259
C          0.05916        10.00214        -0.09877
C          1.24637         9.32903        -0.09707
C          2.49974        10.05319         0.14080
C          3.67137         9.50805         0.59669
C          4.90397        10.24788         0.86881
C          6.10556         9.62535         1.00684
C        -11.24867        -0.79927        -0.83429
C        -10.39255        -1.51285         0.16306
C         -8.54966        -0.88618        -0.32713
C         -7.73943        -1.39997         0.81075
C         -6.49032        -0.58930         1.12372
C         -5.24665        -1.36062         1.54856
C         -3.93712        -0.63151         1.56048
C         -2.63316        -1.40258         1.52534
C         -1.32857        -0.68311         1.72891
C         -0.02748        -1.37565         1.31768
C          1.19804        -0.53539         1.08826
C          2.41891        -1.17137         0.51118
C          3.76263        -0.57403         0.82896
C          4.98033        -1.16600         0.10589
C          6.30214        -0.59882         0.65057
C          7.57125        -1.32599         0.25724
C          8.88203        -0.54733         0.12716
C         10.11387        -1.23789        -0.49308
C         10.89598        -0.29769        -1.37520
C        -10.00386        -2.85606        -0.05933
C         -9.18510        -3.60782         0.93838
C         -7.78160        -2.88366         1.09106
C         -6.49144        -3.62957         1.20962
C         -5.14368        -2.91665         1.48709
C         -3.96828        -3.43804         0.64960
C         -2.65154        -2.69048         0.75350
C         -1.38325        -3.38348         0.39271
C         -0.05893        -2.74287         0.70414
C          1.06466        -3.26828        -0.15637
C          2.38806        -2.56202        -0.06900
C          3.64599        -3.31110        -0.36060
C          4.93462        -2.72254         0.25587
C          6.14529        -3.37869        -0.37843
C          7.44759        -2.65787        -0.41632
C          8.68832        -3.40630        -0.74323
C          9.78558        -2.53138        -1.30140
C         -9.08077        -5.14241         0.64870
C         -7.75856        -5.86011         0.94372
C         -6.51407        -5.05420         0.74344
C         -5.22694        -5.72260         0.41621
C         -3.93813        -4.91089         0.36717
C         -2.62861        -5.66395         0.40379
C         -1.27858        -4.90579         0.41892
C         -0.30068        -5.49163        -0.65953
C          1.03775        -4.69888        -0.65695
C          2.35057        -5.41236        -0.80235
C          3.55499        -4.77026        -0.69005
C          4.86152        -5.37920        -1.20270
C          6.12927        -4.91118        -0.29670
C          7.41929        -5.55082        -0.81748
C          8.63604        -4.75192        -0.94458
C         -7.69341        -7.21441         0.85119
C         -6.46896        -7.94172         0.28985
C         -5.15737        -7.21911         0.64803
C         -3.96779        -7.83543        -0.08050
C         -2.65843        -7.11693         0.04381
C         -1.46300        -7.77392        -0.65510
C         -0.16918        -6.98889        -0.37658
C          1.13540        -7.67631        -0.52192
C          2.30337        -6.90544        -1.14845
C          3.61255        -7.57594        -0.76467
C          4.86328        -6.90320        -1.24078
C          6.15053        -7.65210        -1.19531
C          7.41451        -6.87240        -1.14057
C         -6.27664        -9.40053         0.66382
C         -5.09523       -10.02450         0.48187
C         -3.89664        -9.33555        -0.07778
C         -2.54333        -9.95755        -0.09442
C         -1.39984        -9.26571        -0.33713
C         -0.10728        -9.99063        -0.68530
C          1.17530        -9.16983        -0.61978
C          2.37373        -9.79789        -0.60330
C          3.64788        -9.04608        -0.49122
C          4.95735        -9.74362        -0.58996
C          6.11182        -9.09164        -0.82669
O         -5.71382         4.61345        -3.10241
O          1.54297        -0.33535        -0.32874
O          2.99832         7.49426         1.69210
O         -3.65700         1.73768         2.14608
O          0.62707        -7.26085         0.80479
O         -6.73007        -7.88233        -1.12848
H         -6.49634        -6.97546        -1.43931
O          8.75139         3.65642         1.85235
O          3.03214        -2.49199        -1.40006
O        -10.52487        -1.02708         1.42449
H        -10.21213        -1.71350         2.07137
O          2.93028         3.95924         2.34439
O          3.64699        -8.03472         0.60439
O         -1.65671        -7.77655        -2.03868
O         -4.69223        -0.83707         2.78933
O          8.29920         1.29939         2.43871
H          8.02371         0.38425         2.69076
O         -7.30501        -3.31901         2.38675
O         -5.00010        -7.41654         2.07096
H         -4.08172        -7.14571         2.31763
O         -0.82270         1.57248         2.85407
O          6.54746        -2.72045        -1.60440
O         -4.11749        -3.91954        -0.69900
O          2.01136         1.15212         2.91731
O         -4.20957        -8.54598        -1.29739
O         -6.10260        -5.26003        -0.66625
O          8.51668        -1.28509         1.35488
O          5.05216        -4.87565        -2.51118
H          5.34858        -5.63551        -3.07119
O         -1.46873         8.89030         1.44542
O         -9.30212        -5.31235        -0.75774
H         -8.96882        -6.19456        -1.02725
O          4.93948        -0.74724        -1.26978
H          4.20749        -1.24952        -1.72167
O          0.27273        -2.57095         2.10258
O          5.86937        -5.31179         0.98876
O          3.36129         7.62885        -1.46128
H          3.03082         8.25757        -2.13417
O          3.97386        -0.27824         2.22719
O         -5.60120         6.90978         0.57244
H         -4.91715         6.71785         1.26079
O          3.52419         4.84066        -1.09212
O         -3.54014         5.24983        -1.99265
O          4.91891         1.85613        -0.55868
H          4.86495         0.97808        -1.02910
O         -9.89089         4.30133        -3.72018
H        -10.11625         4.96230        -4.41944
O         -0.89423        -5.36782        -1.94581
H         -0.77913        -4.43932        -2.25352
O         -5.13277         2.42443        -2.02345
O          5.66853         7.97137        -0.70371
O         -3.02975         6.29976         1.35536
O         -2.53168        -6.70035         1.45159
O          5.40598        -7.41972        -2.49123
O          1.08748         7.29489        -1.64664
O         -1.97492        -1.38502         2.82359
O          0.78742        -3.54905        -1.55016
O          0.72491         4.64739        -1.53294
H          1.37514         4.08728        -2.00827
O         -6.50665         1.74639         1.67156
O         -0.65877        -5.09886         1.69760
H         -0.76260        -6.04091         1.96544
O          0.37512         6.38560         1.69081
O         -4.70545         0.13695        -1.01604
H         -4.83668         0.59180        -1.88469
O         -7.63740        -0.63445         2.02277
O          0.82899         2.43157        -0.42138
O          0.02909       -11.17120         0.10870
H          0.25249       -10.90219         1.02346
O          6.31247        -0.21673         2.04610
O         -4.77293        -3.36962         2.80566
H         -4.69725        -2.57469         3.39103
O         -8.21734        -1.49497        -1.51173
H         -8.49112        -0.94387        -2.27385
O         -2.07328        -2.60839        -0.61054
O          9.34118        -2.12164        -2.61093
H          8.42371        -2.43812        -2.75842
O         10.98739        -1.61323         0.59210
H         10.42223        -1.81282         1.37230
O         -8.53937         4.71191        -3.34419
H         -6.53392         4.25482        -3.50948
O          5.80696         3.51798         2.52445
O         -9.80458        -3.44173         2.23264
H         -9.11368        -3.62255         2.91395
O          8.71041         5.48826        -1.32817
H          8.41864         6.39593        -1.55361
O          4.91609        -2.99322         1.65538
H          5.22981        -3.94242         1.76924
O         -5.39788         7.39716        -3.06335
H         -5.35853         6.42770        -3.26666
O          2.15239        -7.03132        -2.57889
H          1.29484        -6.63276        -2.84353
H         11.65975        -0.74485        -2.02732
H         11.37930         1.68325        -1.95457
H         10.55817         3.64298        -0.95164
H          9.67587         5.84858         0.49906
H          8.49829         7.96027         0.63324
H          6.99986        10.21080         1.26682
H          4.83583        11.33794         1.00797
H          2.45913        11.14368        -0.02425
H          0.05295        11.09996         0.00000
H         -2.46369        10.94263        -0.87234
H         -4.90954        10.87218        -1.16756
H         -6.91347         9.59386        -1.80812
H         -8.16833         7.37232        -1.70935
H         -9.38912         5.24511        -1.48371
H        -10.62868         3.06483        -1.79264
H        -11.74861         0.89934        -1.98010
H        -12.18267        -1.30895        -1.11871
H         -9.99201        -3.22489        -1.09611
H         -9.91490        -5.64074         1.22072
H         -8.63950        -7.78357         0.84656
H         -7.13479        -9.96067         1.06567
H         -4.99074       -11.08654         0.75397
H         -2.47932       -11.04777         0.05666
H         -0.22232       -10.33628        -1.75041
H          2.41598       -10.89710        -0.64743
H          4.97064       -10.82650        -0.39147
H          7.06609        -9.63999        -0.81823
H          8.34666        -7.37683        -1.44450
H          9.53903        -5.27206        -1.30515
H         10.73814        -3.11468        -1.41069
