         294
 CSIRO Nanostructure Databank - Neutral Graphene Oxide Data Set
C          1.42534         2.10631        -0.79254
C          1.36411         3.48097        -1.02547
C          2.61707         1.39594        -0.76327
C          2.58520         4.29627        -0.98527
C          1.30774         6.47107        -0.83176
C          1.18876         7.79259        -0.55170
C          2.50892         5.72252        -0.53160
C          2.25001         8.52882         0.14697
C          1.10666        10.75313        -0.11869
C          1.12792        12.09505        -0.40072
C          2.28704         9.99579         0.09858
C          2.41529        12.76869        -0.78147
C          1.50432        14.95380         0.23729
C          1.45533        16.33305         0.28542
C          2.43188        14.25869        -0.56768
C          2.30853        17.14017        -0.65718
C          2.43943        18.61135        -0.31415
C          3.91935         2.04137        -1.15014
C          3.89144         3.56318        -0.93142
C          5.06676         1.36909        -0.45539
C          4.95313         4.16675        -0.06052
C          3.62394         6.36670        -0.04566
C          3.57845         7.78789         0.36226
C          4.82763         5.59067         0.35568
C          4.84398         8.56450         0.41433
C          3.54349        10.68393         0.36989
C          3.61522        12.15759        -0.03407
C          4.82978         9.94002         0.46383
C          4.98574        12.78332        -0.28717
C          3.72231        14.93701        -0.95087
C          3.66151        16.46696        -0.82504
C          4.81674        14.31678         0.01065
C          4.90667        17.19120        -0.48536
C          3.58397        19.27494        -0.09886
C          4.91863        18.59927         0.09813
C          6.20360         2.02351         0.01505
C          6.24032         3.46883         0.13424
C          7.39037         1.28126         0.27437
C          7.36859         4.17035         0.57174
C          6.03910         6.34356         0.89223
C          6.13905         7.76476         0.30071
C          7.36431         5.58245         0.73957
C          7.28695         8.46394         1.01077
C          6.05631        10.73313         0.65869
C          6.08334        12.10312         0.53080
C          7.23569         9.95872         1.16136
C          7.30079        12.91803         0.86961
C          6.11806        15.08123         0.00166
C          6.13661        16.42176        -0.19439
C          7.33860        14.39766         0.51221
C          7.40699        17.22467        -0.00765
C          6.12778        19.30610        -0.48347
C          7.33419        18.64154        -0.54561
C          8.61252         1.94676         0.50701
C          8.57301         3.36367         1.04068
C          9.81684         1.29076         0.36352
C          9.86533         4.12395         0.96029
C          8.57374         6.30912         1.00206
C          8.56097         7.69226         1.13846
C          9.83458         5.55083         1.41545
C          9.81062         8.44362         1.38406
C          8.54653        10.68864         1.40817
C          8.60852        12.11571         0.82084
C          9.78565         9.88785         0.89233
C          9.87398        12.70644         1.40102
C          8.60243        15.11681         0.15588
C          8.54424        16.40701        -0.64145
C          9.80307        14.78985         0.69746
C          9.85017        17.16908        -0.60521
C          8.56439        19.26430        -0.92131
C          9.81642        18.60074        -0.86655
C         11.06431         2.07578         0.13354
C         11.17642         3.39981         0.96322
C         12.32585         1.30243         0.22047
C         12.26451         4.21142         0.29013
C         11.27815         6.22767         1.27587
C         11.15912         7.75275         1.24906
C         12.24250         5.62716         0.25379
C         12.22460         8.56023         0.58315
C         11.12149        10.62787         1.28511
C         11.06951        12.13441         1.10030
C         12.24976         9.92234         0.59281
C         12.18532        12.88405         0.37090
C         11.09075        15.19927         0.17441
C         11.05017        16.52106        -0.39806
C         12.24479        14.41361         0.31608
C         12.31874        17.18457        -0.72106
C         11.03745        19.31296        -0.92069
C         12.31131        18.66801        -0.83200
C         13.51483         1.99134        -0.03072
C         13.37722         3.45619        -0.32059
C         14.75295         1.36497        -0.14892
C         14.57689         4.22427        -0.80163
C         13.34367         6.36929        -0.18964
C         13.31661         7.87785        -0.21031
C         14.53506         5.75839        -0.91594
C         14.62591         8.45742         0.36873
C         13.48196        10.69876         0.14252
C         13.51158        12.18136         0.49236
C         14.68291         9.94526         0.75254
C         14.71734        12.85148         0.45615
C         13.52831        15.01041         0.05537
C         13.57208        16.41758        -0.46318
C         14.71226        14.30720         0.27416
C         14.81303        17.24596        -0.20546
C         13.51755        19.33251        -0.88796
C         14.81684        18.57273        -1.03057
C         16.01709         2.15984        -0.21349
C         15.89793         3.50356        -0.93017
C         17.24100         1.36859        -0.59139
C         17.18417         4.25071        -1.10637
C         15.89675         6.44511        -0.59523
C         15.89069         7.68260         0.26009
C         17.21443         5.72556        -0.75461
C         17.19021         8.40509         0.54877
C         16.00319        10.62311         0.42247
C         15.99898        12.10233         0.38426
C         17.16265         9.89256         0.41173
C         17.19279        12.76341         0.22774
C         16.00494        15.03713         0.21093
C         16.06460        16.39726        -0.49561
C         17.27485        14.24423         0.19783
C         17.34634        17.19789        -0.14129
C         16.04318        19.41728        -0.64617
C         17.35153        18.62692        -0.65919
C         18.41200         1.99006        -0.86747
C         18.50851         3.47252        -1.17846
C         19.69585         1.29895        -0.91624
C         19.62850         4.07470        -0.38395
C         18.38635         6.20764         0.02565
C         18.47719         7.62257         0.52453
C         19.45962         5.33432         0.21280
C         19.87866         8.32629         0.59611
C         18.47071        10.59685         0.49297
C         18.48047        12.01275        -0.05570
C         19.77671         9.86612         0.56699
C         19.72235        12.79737         0.45835
C         18.50118        14.84904        -0.50943
C         18.56977        16.39369        -0.58356
C         19.76587        14.23699         0.01318
C         19.87516        17.13773        -0.57524
C         18.51597        19.28226        -0.81567
C         19.89872        18.67310        -0.74013
C         20.86179         1.98332        -0.77230
C         20.89627         3.41833        -0.49866
C         22.11770         4.10523        -0.57479
C         21.32510         6.35944        -0.04050
C         20.86740         7.75436        -0.45100
C         22.22173         5.53133        -0.66807
C         22.05364         8.63486        -0.74431
C         21.13063        10.62297         0.48543
C         21.03680        12.09614         0.00411
C         22.15221         9.91035        -0.36794
C         22.21966        12.92206         0.47507
C         20.87929        15.05446         0.60921
C         21.04420        16.47301         0.05637
C         22.16383        14.24776         0.65604
C         21.98224        17.26178         0.65635
C         20.81730        19.36674         0.22790
C         21.87679        18.70482         0.73553
O         15.06608         7.58020         1.45790
O         13.60933         3.68969        -1.75992
O          9.84291        14.02131         1.85021
O          4.44724        17.12051        -1.88957
O         16.40442         3.78872        -2.26958
O          3.54843         4.25609        -2.16864
O          3.39562        11.82799         1.33233
O         20.55740         5.77097         0.98456
O         11.99516         5.79828         2.43161
O         19.25317        16.68225        -1.84790
O          6.89007         9.08375         2.28545
O          7.14730        13.92510         1.91397
O         17.77675         7.87035         1.79466
O         16.72146         6.64721        -1.78824
O          4.40899         4.51781         1.28745
O         19.08960        10.32616         1.79307
O         13.05289        16.51188        -1.83829
O          2.64742         8.01527         1.46866
O         10.63127         8.19755         2.54165
O         16.82679        14.89123         1.42914
O         14.54338        10.05142         2.17931
H         14.86925         9.20946         2.57417
O          4.05141        14.65794        -2.32648
H          4.55440        15.44872        -2.64930
O          2.62439        12.47654        -2.20458
H          2.36604        13.26788        -2.72440
O          4.10896         1.78410        -2.57906
H          3.82804         2.60789        -3.04583
O          7.65290        17.36616         1.41969
H          7.72099        16.47110         1.82000
O         19.69822        12.81425         1.90734
H         19.81359        11.88077         2.22880
O         13.61278        10.76667        -1.30739
H         13.38379         9.87852        -1.69637
O         14.77486        17.58344         1.19300
H         15.70706        17.68426         1.52114
O         11.36291        10.52190         2.70484
H         10.52187        10.74694         3.16995
O         16.12717        16.04954        -1.88722
H         15.95667        16.87010        -2.41707
O         21.09512        12.05649        -1.43291
H         20.93718        12.96387        -1.76963
O         11.57548         3.10899         2.31795
H         11.81938         4.00919         2.69311
O          8.86475        12.10390        -0.63090
H          9.79246        12.41878        -0.81196
O          4.29066        14.45033         1.34234
H          4.99570        14.18043         1.97530
O          8.18809        16.19565        -2.02629
H          8.95062        15.78001        -2.47981
O          1.65205        17.08679        -1.95997
H          2.30285        17.43390        -2.60876
O         20.10389         7.61035        -1.67880
H         20.71189         7.37080        -2.40897
O         10.92375         2.60765        -1.23535
H         11.22654         1.92467        -1.87085
O          5.84395         6.50264         2.30815
H          5.44321         5.66878         2.64268
O         14.94391        18.29278        -2.45837
H         14.14250        17.75643        -2.69692
O         17.44995        17.37424         1.29947
H         17.49967        16.47519         1.71946
O         11.70647        12.61261        -1.03202
H         12.33907        11.95087        -1.43569
O          5.09581        18.49635         1.53609
H          6.02838        18.21392         1.71606
O         13.12403         8.24213        -1.60886
H         13.55125         7.54454        -2.17565
O          8.67475        10.86047         2.83379
H          8.17767        10.11868         3.25815
O         18.31164        14.39346        -1.89452
H         18.73644        15.07371        -2.47180
O         21.64954        10.64365         1.83456
H         21.51510         9.73609         2.20173
O         18.54530        11.79148        -1.48128
H         18.41613        12.66505        -1.93403
O          5.40330        12.55011        -1.64051
H          4.76344        13.01239        -2.24085
O          6.45912         7.60791        -1.09953
H          6.59682         8.49183        -1.50002
O         16.26064         2.62637         1.17773
H         16.18403         1.85099         1.77419
O         18.94030         3.55882        -2.56847
H         18.14580         3.36940        -3.11772
O         20.43955         8.06545         1.89937
H         19.69734         8.17913         2.53842
O          9.64109         5.43589         2.86652
H         10.56017         5.62779         3.24566
O         20.51721        18.91364        -2.04055
H         20.07447        18.30508        -2.67351
O         16.12364        20.54264        -1.51530
H         15.95947        20.21118        -2.42456
O         20.48677        15.31152         2.00400
H         20.22744        14.43093         2.38296
O          9.70144         9.68694        -0.53282
H          9.40037        10.52292        -0.96752
O          8.34821         3.15479         2.47892
H          8.66326         3.97385         2.94817
O         14.32133         6.01814        -2.33622
H         15.10426         5.65154        -2.81076
H          0.48058         1.56124        -0.64498
H          0.38373         3.97620        -1.03122
H          2.60523         0.31294        -0.57637
H          0.49301         5.96489        -1.36728
H          0.31101         8.34855        -0.91051
H          0.13643        10.23673        -0.06168
H          0.18325        12.61331        -0.62154
H          0.74983        14.38105         0.79707
H          0.68304        16.83606         0.88385
H          1.49787        19.18130        -0.36869
H          5.09645         0.27038        -0.52583
H          3.54949        20.36181         0.07813
H          7.39777         0.20104         0.06158
H          6.05405        20.35580        -0.80825
H          9.82049         0.21561         0.11960
H          8.55144        20.33973        -1.15746
H         12.32919         0.23558         0.48438
H         11.01128        20.40751        -1.03071
H         14.82531         0.28218         0.03540
H         13.54235        20.42552        -1.01669
H         17.22452         0.28021        -0.41780
H         15.89260        19.80471         0.39661
H         19.70152         0.20296        -1.01532
H         18.47543        20.34763        -1.09714
H         21.82123         1.44565        -0.80994
H         23.00271         3.51409        -0.86132
H         23.00303         5.94923        -1.32256
H         22.85700         8.17987        -1.34670
H         23.05322        10.48354        -0.63411
H         23.18343        12.40098         0.58905
H         23.07711        14.78207         0.96138
H         22.77058        16.79148         1.26211
H         20.69784        20.44909         0.38027
H         22.61612        19.23254         1.35552
