         404
 CSIRO Nanostructure Databank - Neutral Graphene Oxide Data Set
C          2.46849         1.88267         3.97967
C          2.09943         2.70972         2.91782
C          3.81861         1.72661         4.28720
C          3.08626         3.41611         2.22194
C          1.47731         6.18405         1.20805
C          1.41679         7.55078         1.19895
C          2.73865         5.52331         1.21547
C          2.60912         8.34251         1.14675
C          1.30347        10.39855         0.72297
C          1.27850        11.71631         0.34742
C          2.52971         9.74083         1.02192
C          2.48283        12.50377         0.33090
C          1.42390        15.72095         0.92283
C          1.56078        16.87030         1.67682
C          2.53981        14.86533         0.66465
C          2.83581        17.27554         2.14775
C          3.07783        18.59156         2.62149
C          4.81138         2.41853         3.57419
C          4.45376         3.33124         2.55747
C          6.24457         2.06032         3.89288
C          5.49996         4.09543         1.81174
C          3.94441         6.21538         1.24210
C          3.90232         7.66398         1.12667
C          5.25198         5.50479         1.17986
C          5.04959         8.39248         0.78195
C          3.80472        10.55217         1.16190
C          3.69460        11.99833         0.71252
C          4.92052         9.85267         0.36830
C          4.96881        12.76072         0.84441
C          3.79119        15.11598         1.19035
C          3.95905        16.37383         1.92327
C          5.01051        14.25032         1.05903
C          5.34828        17.10283         1.70503
C          4.31847        19.20301         2.49712
C          5.40573        18.55420         1.84951
C          7.25062         2.65392         2.94284
C          6.90022         3.74183         2.12932
C          8.53142         2.06064         2.86940
C          7.97272         4.53414         1.55886
C          6.43458         6.34850         0.87299
C          6.30263         7.72982         0.57230
C          7.70400         5.75478         0.77552
C          7.45481         8.47357         0.17032
C          6.23271        10.62387         0.37122
C          6.22927        12.07024         0.42247
C          7.39925         9.91534         0.13041
C          7.38347        12.81432         0.18304
C          6.24110        14.95790         0.64790
C          6.22442        16.43195         0.71243
C          7.38242        14.27506         0.17904
C          7.37285        17.22704         0.17031
C          6.53328        19.24831         1.36817
C          7.57960        18.61282         0.66047
C          9.54546         2.55270         2.02193
C          9.38538         3.92299         1.51874
C         10.69729         1.83410         1.64668
C         10.32342         4.44428         0.53111
C          8.79033         6.43958         0.18732
C          8.68342         7.80809        -0.10315
C          9.95549         5.63278        -0.32025
C          9.83203         8.53735        -0.64447
C          8.68309        10.62161        -0.02238
C          8.67338        12.12342        -0.02890
C          9.80370         9.91231        -0.67444
C          9.83835        12.83446        -0.61728
C          8.54662        14.98733        -0.22982
C          8.52111        16.45439        -0.40605
C          9.83554        14.29270        -0.42736
C          9.78113        17.22555        -0.69439
C          8.77718        19.27823         0.36539
C          9.87676        18.64898        -0.27313
C         11.67179         2.39771         0.79082
C         11.46482         3.72654         0.23629
C         12.81753         1.67736         0.38979
C         12.48722         4.33702        -0.58345
C         11.15541         6.42851        -0.74912
C         11.04476         7.81819        -1.03700
C         12.35742         5.71055        -0.98874
C         12.12368         8.50227        -1.62776
C         10.85448        10.70266        -1.34759
C         10.94021        12.17059        -1.11459
C         12.05826         9.95838        -1.90043
C         12.14139        12.87846        -1.56453
C         11.07344        15.03529        -0.89790
C         11.04386        16.51437        -0.98419
C         12.16365        14.26800        -1.52918
C         12.18057        17.22891        -1.23205
C         11.08544        19.31617        -0.44685
C         12.24991        18.65628        -0.94930
C         13.79299         2.23797        -0.45837
C         13.65434         3.62096        -0.89775
C         14.93931         1.49832        -0.82424
C         14.69582         4.25216        -1.62706
C         13.45065         6.34650        -1.64114
C         13.28067         7.73090        -2.07447
C         14.63958         5.63632        -1.95346
C         14.58060         8.49528        -2.51143
C         13.30364        10.74626        -2.14708
C         13.31372        12.12115        -2.03037
C         14.53618        10.00081        -2.54643
C         14.55755        12.89375        -2.49933
C         13.33266        15.04517        -2.02028
C         13.36470        16.55263        -1.80406
C         14.62230        14.34232        -2.07632
C         14.66206        17.22437        -1.71341
C         13.46923        19.31320        -1.03811
C         14.68982        18.64314        -1.40588
C         15.98107         2.05726        -1.58743
C         15.82466         3.44462        -2.08537
C         17.18359         1.36406        -1.78547
C         17.07409         4.19340        -2.56611
C         15.85607         6.35536        -2.33498
C         15.84845         7.78520        -2.37349
C         17.08939         5.65415        -2.42519
C         17.07785         8.52051        -2.21897
C         15.86102        10.71912        -2.45951
C         15.84944        12.17005        -2.20667
C         17.06518         9.92428        -2.17243
C         17.05082        12.87610        -2.03717
C         15.82065        15.03478        -1.99267
C         15.85143        16.49125        -1.85783
C         17.08186        14.31920        -1.98168
C         17.09827        17.17695        -1.81262
C         15.87722        19.33847        -1.48340
C         17.12069        18.67631        -1.98463
C         18.37928         1.99599        -2.22040
C         18.36021         3.42381        -2.61447
C         19.60381         1.33539        -2.13908
C         19.65422         4.19891        -2.49536
C         18.34331         6.35114        -2.30799
C         18.32916         7.77561        -2.13629
C         19.58710         5.65902        -2.27178
C         19.55550         8.44997        -1.98822
C         18.26562        10.67980        -1.80051
C         18.29117        12.16220        -1.92661
C         19.55122         9.90318        -1.74831
C         19.49360        12.86207        -1.82665
C         18.30957        15.01110        -1.85697
C         18.32204        16.46943        -1.77186
C         19.53865        14.28745        -1.80954
C         19.54002        17.17934        -1.63853
C         18.36490        19.31393        -1.45274
C         19.55480        18.60439        -1.37886
C         20.85615         2.03502        -2.09964
C         20.87256         3.46197        -2.12563
C         22.06180         1.33963        -1.86968
C         22.05936         4.17428        -1.84583
C         20.80685         6.33712        -2.01149
C         20.79563         7.76000        -1.92034
C         22.04170         5.61391        -1.81667
C         22.03565         8.46809        -1.70918
C         20.82130        10.64125        -1.97717
C         20.78045        12.12755        -1.90394
C         22.07296         9.89336        -1.72108
C         22.00887        12.83332        -1.44710
C         20.81302        14.98315        -1.70298
C         20.81712        16.46775        -1.74514
C         22.00382        14.31175        -1.51188
C         22.09297        17.22444        -1.37966
C         20.76678        19.26410        -0.96298
C         21.99726        18.61604        -0.88032
C         23.27748         2.02684        -1.63681
C         23.27169         3.46399        -1.60239
C         24.49135         1.33141        -1.41453
C         24.48068         4.17194        -1.33355
C         23.24135         6.30916        -1.53128
C         23.23708         7.74457        -1.49716
C         24.46566         5.59920        -1.29352
C         24.44685         8.44857        -1.21831
C         23.27126        10.58492        -1.57123
C         23.29256        12.07014        -1.41064
C         24.45120         9.86831        -1.24736
C         24.59298        12.80816        -1.73573
C         23.25346        14.99709        -1.10370
C         23.29499        16.46120        -1.01560
C         24.59200        14.24940        -1.15350
C         24.43059        17.11143        -0.55768
C         23.16496        19.22652        -0.35670
C         24.39724        18.53474        -0.24483
C         25.70120         2.01613        -1.15276
C         25.69269         3.45652        -1.10101
C         26.91855         1.32511        -0.94951
C         26.90037         4.16196        -0.83710
C         25.67930         6.30399        -1.01507
C         25.65786         7.74683        -0.93713
C         26.88002         5.58339        -0.81740
C         26.80641         8.48430        -0.55317
C         25.65098        10.59022        -0.95639
C         25.76937        11.96702        -1.27552
C         26.80887         9.88636        -0.54286
C         27.07475        12.48092        -1.37771
C         25.79750        15.11711        -1.08616
C         25.69964        16.41580        -0.51530
C         27.08752        14.63265        -1.33966
C         26.88955        17.09092        -0.14125
C         25.57804        19.16096         0.19925
C         26.82671        18.47526         0.27471
C         28.13340         2.01094        -0.69567
C         28.12963         3.44513        -0.62709
C         29.35363         1.31007        -0.51155
C         29.34925         4.13455        -0.34211
C         28.14731         6.30454        -0.60743
C         28.09821         7.78440        -0.39290
C         29.36164         5.55860        -0.21391
C         29.20705         8.43952         0.37872
C         28.00112        10.66304        -0.10425
C         28.18058        12.02653        -0.65973
C         29.19255         9.94441         0.42806
C         29.40646        12.78159        -0.49358
C         28.23827        15.07921        -0.66859
C         28.14197        16.40102        -0.12729
C         29.43342        14.26190        -0.51858
C         29.31828        17.04734         0.33904
C         28.00651        19.11153         0.69797
C         29.25862        18.43003         0.73658
C         30.57072         1.98547        -0.27776
C         30.56737         3.42344        -0.18043
C         31.80151         1.29719        -0.14095
C         31.78795         4.13261         0.03415
C         30.53259         6.24571         0.10214
C         30.49135         7.67819         0.49081
C         31.77806         5.55386         0.19115
C         31.77531         8.40533         0.61526
C         30.49547        10.68758         0.50542
C         30.54643        12.07030        -0.04293
C         31.77118         9.89477         0.69761
C         31.85661        12.68448        -0.11565
C         30.58018        14.95166        -0.06848
C         30.54850        16.33310         0.33661
C         31.87723        14.28098        -0.08529
C         31.74368        16.99634         0.74648
C         30.45490        19.07683         1.09793
C         31.69695        18.38822         1.10370
C         33.02282         1.98982         0.01873
C         33.02446         3.43429         0.09283
C         34.24897         1.30428         0.12174
C         34.24456         4.15316         0.20617
C         32.99107         6.26624         0.41604
C         32.95838         7.70887         0.60531
C         34.22976         5.57224         0.38102
C         34.22886         8.41633         1.02616
C         33.06812        10.58333         0.48814
C         33.07967        11.98902         0.29884
C         34.26068         9.87591         0.63848
C         34.28567        12.71494         0.43756
C         33.05632        14.89476         0.49392
C         32.99072        16.28964         0.85052
C         34.25764        14.15032         0.61224
C         34.15604        16.96582         1.24343
C         32.89859        19.05840         1.43989
C         34.13637        18.37699         1.49148
C         35.49230         1.99165         0.13732
C         35.49890         3.45128         0.11873
C         36.68446         1.26972         0.25624
C         36.70283         4.16949         0.11560
C         35.48217         6.29376         0.47756
C         35.49811         7.69109         0.66357
C         36.71941         5.59419         0.31810
C         36.71631         8.40726         0.70305
C         35.50049        10.57002         0.65269
C         35.51038        12.00040         0.61960
C         36.72158         9.84546         0.78974
C         36.73444        12.70920         0.79171
C         35.45974        14.80883         0.99088
C         35.39717        16.19103         1.58673
C         36.67924        14.12943         0.94621
C         36.67274        16.98597         1.46993
C         35.35716        19.06273         1.74819
C         36.61875        18.40761         1.67763
C         37.96974         1.90105         0.01066
C         37.97203         3.45663        -0.09405
C         39.23537         1.27239         0.41049
C         39.23906         4.14281         0.18358
C         37.94531         6.31705         0.36608
C         37.95967         7.70824         0.60563
C         39.22615         5.61260         0.15644
C         39.19474         8.42189         0.88867
C         37.94526        10.54290         1.00074
C         37.96068        11.99417         1.00884
C         39.13815         9.81590         1.19523
C         39.17311        12.67857         1.25647
C         37.92809        14.90363         0.97870
C         37.89363        16.33296         1.35477
C         39.24729        14.14233         1.09465
C         39.12775        17.03641         1.51890
C         37.83321        19.12013         1.75857
C         39.08133        18.45634         1.70466
C         40.38369         1.99029         0.50570
C         40.41336         3.43595         0.38295
C         41.63018         4.14681         0.72468
C         40.53695         6.34797         0.46324
C         40.44348         7.75593         0.90440
C         41.68194         5.49907         0.83136
C         41.64042         8.50196         1.17444
C         40.31039        10.48748         1.87294
C         40.33989        11.99497         1.70068
C         41.61155         9.80734         1.55387
C         41.45033        12.72636         2.10650
C         40.41489        14.88250         1.60106
C         40.38038        16.34384         1.59860
C         41.47277        14.14568         2.10116
C         41.55308        17.09591         1.75892
C         40.30361        19.17300         1.85157
C         41.51128        18.49841         1.85883
O         19.12905         3.75095        -3.80832
O         28.51703         7.25988        -1.70472
O         10.89077        14.69438         0.54713
O         13.07466        15.96406        -3.13205
O         22.57508        12.35842        -0.16745
O          2.65854         4.13417         1.09798
O         29.55416         7.83687         1.65466
O         18.86758        10.25709        -0.49682
O         28.22186        10.51505         1.36245
O         20.89886        11.44054        -3.21210
O          9.01382         4.87657         2.56566
O         10.94973        10.35811        -2.78083
O          9.10105        11.36838         1.18125
O         38.75954        14.64286        -0.20064
O         16.10238         3.65216        -3.50881
O         13.65895         7.93371        -3.47984
O          8.81131        16.93937        -1.78047
O         31.08333        10.51111         1.85059
O         38.01782         2.60934        -1.27705
O         21.69908        17.04117        -2.78630
O         40.05934         6.16950        -0.91603
O         23.87513        14.38335         0.09359
O          6.13539        17.08657        -0.61239
O          5.03450        16.37415         2.90172
O         32.09255        13.50332        -1.29527
O         15.20063        10.43169        -3.78782
O         27.22602        13.57398        -2.24319
O          5.16525        13.31685         2.22009
O          5.25048         4.26933         0.38356
O          2.28724        13.79248        -0.18938
O         14.42881        12.97971        -3.95967
H         14.59178        12.06836        -4.31309
O         40.08640        10.28658         3.32432
H         40.01921         9.31968         3.47563
O          4.15630        10.54390         2.57024
H          4.60629        11.39191         2.78566
O          4.48588         9.83339        -1.02660
H          5.13847         9.31365        -1.54158
O          9.41958         5.02678        -1.56728
H         10.17410         4.62090        -2.04666
O         24.63351        12.92941        -3.17691
H         25.54624        13.20345        -3.42352
O         17.14887        18.90100        -3.46259
H         17.95092        18.45101        -3.80637
O         35.27176        15.92836         3.04865
H         35.15279        16.79949         3.48544
O          6.57812         2.48411         5.23134
H          6.69600         3.45624         5.22509
O         34.19446         8.40129         2.49830
H         33.37274         8.85989         2.77944
H          1.70435         1.32774         4.54053
H          1.04946         2.80377         2.61245
H          4.12551         1.03634         5.08476
H          0.56271         5.57716         1.21934
H          0.43419         8.03777         1.23424
H          0.36334         9.83141         0.69803
H          0.33850        12.19682         0.04678
H          0.44807        15.44584         0.50206
H          0.69235        17.52111         1.85241
H          2.21574        19.19835         2.93588
H          6.33455         0.94215         3.89249
H          4.41488        20.27017         2.74448
H          8.69634         1.11569         3.40835
H          6.62615        20.32158         1.59339
H         10.84285         0.81023         2.02235
H          8.89395        20.32359         0.69004
H         12.95845         0.64912         0.75517
H         11.16630        20.37217        -0.14724
H         15.04988         0.46987        -0.44908
H         13.52106        20.38538        -0.79586
H         17.25024         0.32425        -1.43063
H         15.89795        20.41921        -1.27965
H         19.61024         0.25640        -1.92258
H         18.36356        20.39831        -1.26750
H         22.05435         0.23984        -1.85362
H         20.69443        20.31945        -0.66001
H         24.49312         0.23177        -1.45076
H         23.11345        20.27939        -0.04013
H         26.92503         0.22599        -0.99641
H         25.54448        20.22599         0.47541
H         29.35255         0.21174        -0.57405
H         27.97119        20.17047         0.99513
H         31.81273         0.19852        -0.19777
H         30.43392        20.14176         1.37337
H         34.25212         0.20411         0.12224
H         32.86749        20.13505         1.66384
H         36.64929         0.19732         0.49998
H         35.33143        20.14984         1.91323
H         39.22974         0.19895         0.65165
H         37.81146        20.21219         1.89017
H         41.32060         1.48457         0.78294
H         42.51301         3.54703         0.99184
H         42.59054         5.97573         1.22706
H         42.61160         8.01088         1.01585
H         42.55622        10.34232         1.72497
H         42.33391        12.20335         2.49732
H         42.36026        14.65269         2.50527
H         42.52750        16.58970         1.79918
H         40.27479        20.26574         1.96877
H         42.45140        19.05684         1.96851
