         272
 CSIRO Nanostructure Databank - Neutral Graphene Oxide Data Set
C        -10.18887         0.91679         1.19538
C         -9.58785         1.60790         0.03159
C         -8.65988         0.81311        -0.84125
C         -7.52469         1.48967        -1.62991
C         -6.14786         0.76975        -1.36447
C         -4.90288         1.50089        -0.85710
C         -3.73792         0.73743        -0.37765
C         -2.64421         1.42780         0.19398
C         -1.38805         0.69317         0.49061
C         -0.11119         1.47095         0.42147
C          1.14298         0.80062        -0.03024
C          2.41931         1.33955         0.54284
C          3.71054         0.74429         0.05309
C          4.98348         1.29687         0.67073
C          6.26441         0.60379         0.34675
C          7.51195         1.39314         0.01018
C          8.85801         0.73268         0.41166
C          9.90649         1.38081        -0.48076
C         11.03262         0.57078        -0.89404
C         -9.53178         3.08978         0.02483
C         -8.67300         3.76604        -0.75494
C         -7.47441         3.13346        -1.49559
C         -6.21539         3.75357        -0.77629
C         -4.99291         2.95499        -0.47245
C         -3.92773         3.52445         0.42026
C         -2.63659         2.80714         0.41445
C         -1.44591         3.49150         0.99667
C         -0.14081         2.76404         1.19721
C          1.17357         3.50094         1.56682
C          2.42622         2.72413         1.12497
C          3.71153         3.52279         1.06553
C          5.00996         2.78417         0.97739
C          6.29624         3.54747         0.75687
C          7.56699         2.82678         0.48501
C          8.75106         3.62106        -0.09345
C          9.76326         2.70842        -0.79225
C         -8.65653         5.23070        -0.96288
C         -7.50649         5.86671        -0.66078
C         -6.50334         4.99936         0.08906
C         -5.25399         5.77360         0.52743
C         -3.97719         4.99021         0.71647
C         -2.67017         5.72597         0.57711
C         -1.38762         4.96508         0.71541
C         -0.09689         5.72906         0.87323
C          1.18603         4.99814         1.19696
C          2.46992         5.65160         0.80674
C          3.63624         4.95517         0.63994
C          4.89611         5.62570         0.15829
C          6.23074         4.90799         0.09836
C          7.46355         5.78061         0.10297
C          8.13436         4.82876        -0.85983
C         -7.12400         7.26493        -1.08415
C         -6.52344         8.02099         0.11582
C         -5.23884         7.27605         0.54165
C         -3.90778         8.00128         0.48347
C         -2.62919         7.22797         0.57518
C         -1.35560         7.87798         0.08433
C         -0.04975         7.09865         0.23317
C          1.19116         7.85570         0.37905
C          2.42105         7.13985         0.72549
C          3.70648         7.88954         0.58309
C          4.95693         7.11750         0.28096
C          6.23754         7.83159         0.71262
C          7.45843         7.12705         0.15910
C         -6.29348         9.49088        -0.15277
C         -5.09896        10.08192        -0.26989
C         -3.80657         9.30338        -0.31255
C         -2.59533        10.14620         0.14845
C         -1.29046         9.35765         0.12397
C         -0.08224         9.98254         0.14987
C          1.19460         9.27275         0.22300
C          2.40015         9.98120         0.16627
C          3.68806         9.24756        -0.09600
C          4.99263         9.97133         0.17418
C          6.14414         9.31983         0.41168
C        -10.22727        -0.42111         1.25928
C         -9.82004        -1.30037         0.08757
C         -8.63283        -0.70422        -0.70226
C         -7.41556        -1.52631        -1.03750
C         -6.12615        -0.77349        -1.39721
C         -4.74526        -1.43063        -1.32356
C         -3.50838        -0.65451        -0.91403
C         -2.57155        -1.50039        -0.07139
C         -1.34876        -0.77631         0.37551
C         -0.09599        -1.43349        -0.12018
C          1.11158        -0.64187        -0.49953
C          2.40428        -1.36927        -0.95780
C          3.69627        -0.60615        -0.61000
C          5.00749        -1.37697        -0.76567
C          6.28164        -0.68899        -0.42069
C          7.59483        -1.47806        -0.39533
C          8.77849        -0.83564         0.41321
C         10.00350        -1.54206        -0.12499
C         11.10339        -0.77375        -0.65745
C         -9.58056        -2.70138         0.57771
C         -8.49562        -3.45412         0.30213
C         -7.39981        -2.95696        -0.53582
C         -6.54118        -3.88581        -1.02649
C         -4.62959        -2.90384        -1.20612
C         -3.73314        -3.64211        -0.46396
C         -2.58650        -2.86864         0.03240
C         -1.33755        -3.56918         0.49306
C         -0.02233        -2.87174         0.27251
C          1.31086        -3.55254         0.15083
C          2.48073        -2.80870        -0.43502
C          3.66928        -3.59704        -0.93416
C          5.00436        -2.87810        -0.96870
C          6.22319        -3.66843        -0.61515
C          7.37122        -2.92785         0.09854
C          8.70460        -3.66000        -0.00397
C          9.93641        -2.91149        -0.21468
C         -8.45285        -4.86613         0.86812
C         -7.42014        -5.81873         0.29563
C         -6.45111        -5.34719        -0.76855
C         -5.01492        -5.84206        -0.45401
C         -3.85829        -5.10967        -0.27299
C         -2.61697        -5.80027         0.27791
C         -1.34381        -5.06445         0.61383
C          0.01279        -5.79053         0.64313
C          1.39919        -5.07797         0.38892
C          2.33511        -5.81291        -0.59015
C          3.64756        -5.10778        -0.88556
C          4.96452        -5.84876        -0.80142
C          6.18201        -5.03357        -0.49816
C          7.36341        -5.70864         0.12663
C          8.66917        -5.01716         0.02115
C         -7.37719        -7.09997         0.70928
C         -6.11649        -7.93093         0.62161
C         -5.07115        -7.36639        -0.38200
C         -3.75586        -8.05858        -0.10395
C         -2.51719        -7.28367         0.07294
C         -1.35342        -8.09620         0.71876
C         -0.01543        -7.29198         0.57966
C          1.06479        -8.06032        -0.16656
C          2.31898        -7.31057        -0.60105
C          3.62187        -8.16349        -0.58736
C          4.95857        -7.34601        -0.55611
C          6.16502        -7.99412         0.04063
C          7.32834        -7.15140         0.46722
C         -6.23646        -9.40266         0.24554
C         -5.12915       -10.13265         0.01583
C         -3.77771        -9.53537         0.36193
C         -2.49028       -10.15870        -0.15278
C         -1.33986        -9.47336         0.02494
C         -0.00906        -9.83315        -0.56744
C          1.19209        -9.48517         0.27860
C          2.38040       -10.04377         0.54532
C          3.55071        -9.08701         0.68369
C          4.83139        -9.85335         0.93477
C          6.03414        -9.33522         0.66828
O         -2.82918        10.65455         1.46275
H         -2.91257         9.88487         2.07110
O          1.28193         3.46585         2.99498
H          0.54956         4.00162         3.37056
O          2.49184         1.52932         1.97106
O         -5.07672         3.86220        -1.64256
O          4.30792        -5.60965        -2.07933
O         -5.46941         6.54098         1.77239
O         -6.08328         7.18360        -2.07537
H         -6.32310         6.48785        -2.72616
O          6.74508         4.50317        -1.31313
O         -5.58304        -3.53528        -1.99959
O         -8.47645        -1.32424        -2.01694
O          4.48831         3.23296         2.27130
O         -5.40282        -1.14857        -2.59936
O         -1.09309         2.90013         2.28465
O         -2.28440        -5.46195         1.65700
O          0.09374        -0.98827        -1.48907
O          5.78290        -0.65826        -1.78553
O         -2.84068        -7.77438        -1.24549
O         -8.19145        -4.72415         2.27848
H         -7.85837        -5.57932         2.62302
O         -1.59409        -8.24827         2.06706
O         -4.18656         4.01961         1.79190
O          0.44001         5.76743         2.21718
O          1.90562        -6.52169        -1.77305
O         -2.68903        -0.37359        -2.18616
O         -1.97129         5.19316        -0.60116
O         -0.61317        -2.98072         1.61284
O          0.43775         1.72531        -0.91776
O         -1.41333        -0.16434         1.69235
O          0.25227        -6.62889         1.81703
O          5.97025        -7.98544        -1.41250
O         -7.46447         3.64994        -2.77377
O        -10.95791        -1.35849        -0.80310
H        -10.95858        -0.51162        -1.31208
O        -10.00906         1.15139        -1.31404
O          3.66204         8.96853        -1.53233
H          3.77036         9.81411        -2.01551
O         -3.16416         7.92875         1.74283
O          2.30609        -2.85784         1.00096
O         -5.61182        -7.77534         1.96488
H         -4.99609        -8.52991         2.17513
O         -3.74950        -9.62548         1.81125
H         -2.89890        -9.19914         2.14452
O          7.05729        -6.18978         1.52012
H          6.91024        -3.81476         1.81426
O          9.95472        -1.32554         2.40389
H          9.91699        -2.19979         2.86281
O          4.26461        -3.17126        -2.18507
O         -5.15396         1.27467        -2.27650
O          6.90837        -2.89562         1.46789
O          4.81617         6.50505        -1.02022
O          0.33880        -8.61531        -1.36952
O         -3.56654         8.92778        -1.68830
H         -4.36157         8.45306        -2.02789
O          9.17429         1.20051         1.73309
O          7.24045         3.24402         1.83290
O          8.07825        -1.56783        -1.74576
H          7.32837        -1.32343        -2.34397
O          3.74671         0.63983        -1.39360
O         -0.71516         7.26595        -1.06007
O          5.69806         0.49469         1.66907
O          2.16526        -5.22761         1.59824
H          1.66224        -4.83358         2.34267
O          9.49072         4.20792         0.99853
H          9.62047         3.49834         1.66767
O         -5.45134        -7.84455        -1.69311
H         -4.66405        -7.74448        -2.27219
O          7.38461         1.45437        -1.43216
H          8.10993         1.99182        -1.81743
O          6.24227         7.70808         2.15993
H          7.10525         8.02342         2.49915
O         -6.92089        -5.92330        -2.01474
H         -6.41950        -5.49940        -2.74373
O         -2.70617        -1.56500        -2.97426
H         -3.44550        -1.40060        -3.61372
O          3.14430         7.79683         1.88938
O          8.61281        -1.23570         1.82183
H          8.77092         0.57877         2.38207
O         -7.11508         4.48225         1.28924
H         -7.02500         5.17729         1.97977
O          3.63000        -9.01566        -1.72544
H          3.75776        -8.46025        -2.52295
O         -7.77882         1.23011        -2.99123
H         -7.63957         2.10458        -3.45967
O          2.35952        -1.45287        -2.38005
H          2.55026        -0.56402        -2.74937
O         -7.49813         7.92350         1.16852
H         -7.03202         7.99256         2.02874
O          3.33309        -8.17345         1.78147
H          3.11802        -8.68449         2.58886
H         11.99286        -1.32929        -0.99260
H         11.86886         1.07403        -1.40284
H         10.54936         3.20537        -1.38500
H          8.76282         5.24967        -1.67717
H          8.33340         7.71303        -0.16108
H          7.07197         9.90397         0.52896
H          5.00458        11.06614         0.04395
H          2.37303        11.07672         0.05313
H         -0.04409        11.08235         0.14447
H         -2.49722        11.02757        -0.53347
H         -5.03966        11.16842        -0.43568
H         -7.20670        10.10512        -0.18557
H         -8.01693         7.80714        -1.49760
H         -9.49535         5.72786        -1.47452
H        -10.31934         3.62491         0.57794
H        -10.55698         1.53648         2.02690
H        -10.67606        -0.91399         2.13487
H        -10.39752        -3.14380         1.16785
H         -9.47764        -5.32699         0.73802
H         -8.12836        -7.45369         1.43694
H         -7.23433        -9.83593         0.07731
H         -5.19698       -11.18987        -0.28292
H         -2.49978       -11.13667        -0.66034
H          0.00593       -10.77483        -1.16192
H          2.53529       -11.13203         0.58822
H          4.74940       -10.84933         1.39776
H          6.95773        -9.88919         0.89732
H          8.29734        -7.68620         0.59024
H          9.59073        -5.61746        -0.01727
H         10.81611        -3.47826        -0.55927
