         320
 CSIRO Nanostructure Databank - Neutral Graphene Oxide Data Set
C         30.19949        32.16017         0.14100
C         30.20823        33.28253         0.70078
C         30.47056        36.13941         1.54893
C         30.32872        37.26806         1.08613
C         30.38620        40.48633         0.80836
C         30.60323        41.54803         1.46403
C         32.49422        29.14554        -0.82836
C         31.43322        29.93855        -0.64439
C         32.64713        31.63029         0.62941
C         31.03551        31.13126        -0.29036
C         32.60994        33.16282         0.67264
C         31.41938        33.73436         1.52470
C         32.78966        35.95242         1.07586
C         31.61800        35.25621         1.84303
C         32.72000        37.34697         0.64317
C         31.41703        38.03905         0.46050
C         32.74748        40.28586         0.24668
C         31.40748        39.56971         0.32463
C         32.88264        41.74529         0.83730
C         31.72361        42.37552         1.53615
C         33.25330        44.16874         2.13996
C         32.14728        43.60040         2.12153
C         35.14943        27.43492        -0.72491
C         35.01987        28.93836        -0.93593
C         33.74406        29.57388        -0.45343
C         35.10104        31.45166         0.73895
C         33.85155        31.06387        -0.10994
C         35.19361        32.98653         0.65972
C         33.97368        33.73342         1.20165
C         35.08147        35.84622         0.19021
C         33.93124        35.20989         0.86908
C         35.23635        37.31593         0.50095
C         33.91929        38.07687         0.38564
C         35.21453        40.20353        -0.25987
C         33.95148        39.45694         0.16338
C         35.38799        41.52800         0.47097
C         34.28161        42.25827         1.13534
C         35.11158        44.53192         0.34884
C         34.58781        43.75453         1.56990
C         35.60905        45.91480         0.63236
C         37.62939        27.28714        -0.68250
C         36.26424        26.89365        -0.71820
C         37.65440        28.85074        -0.77055
C         36.33362        29.53804        -0.37187
C         37.60605        31.46930         0.68022
C         36.35074        30.73324         0.25794
C         37.60348        32.84161        -0.02418
C         36.31317        33.61283         0.22342
C         37.62236        35.82411        -0.17441
C         36.34067        35.07825        -0.06242
C         37.66218        37.20309        -0.34422
C         36.34552        37.95994        -0.38639
C         37.72876        40.11165        -0.50015
C         36.52124        39.41332         0.04737
C         37.89811        41.54792        -0.08171
C         36.55940        42.30246        -0.06777
C         37.76112        44.55361        -0.45694
C         36.46838        43.79524        -0.18197
C         37.90005        46.04397        -0.18624
C         36.69048        46.49192         0.52739
C         40.08583        24.52043        -1.05696
C         39.04559        25.17156        -0.82619
C         40.14336        27.31627        -0.85987
C         38.78363        26.56856        -0.72273
C         40.12012        28.54551         0.03827
C         38.85206        29.33751         0.04930
C         40.08989        31.48509         0.37333
C         38.91551        30.78926         0.34448
C         40.05448        32.91119         0.91628
C         38.76121        33.74133         0.54303
C         40.13277        35.84813        -0.11464
C         38.89301        35.01961        -0.33454
C         40.12816        37.19345        -0.49087
C         38.88750        37.90155        -0.62140
C         40.27041        40.04118        -0.60457
C         38.90313        39.36588        -1.07256
C         40.32351        41.55485        -0.79850
C         38.98560        42.27727        -0.89949
C         40.18544        44.55269        -1.18878
C         39.08417        43.75102        -0.44152
C         40.37631        45.72743        -0.25051
C         39.28155        46.58646        -0.02454
C         40.42381        48.92042        -0.05345
C         39.69236        47.92067         0.11821
C         42.72254        24.55924        -1.27410
C         41.40790        25.11581        -1.02328
C         42.69936        27.31124        -0.79574
C         41.41500        26.46768        -0.70248
C         42.75830        28.50175         0.20559
C         41.41627        29.25310         0.36720
C         42.67752        31.50402         0.43833
C         41.38679        30.74415         0.52322
C         42.64599        32.98658         0.48940
C         41.37391        33.78094         0.84987
C         42.64103        35.90492         0.24317
C         41.40065        35.02475        -0.11162
C         42.71273        37.15446        -0.62303
C         41.42018        37.84624        -0.90666
C         42.78531        40.00855        -1.10356
C         41.43590        39.32116        -1.29958
C         42.75621        41.48035        -1.33199
C         41.48023        42.22974        -1.05690
C         42.84515        44.50398        -1.38995
C         41.45027        43.67329        -1.58489
C         42.79910        45.69881        -0.43441
C         41.67079        46.07541         0.25310
C         42.81055        48.84349        -0.29429
C         41.60713        49.63293        -0.23454
C         43.77411        25.22331        -1.37078
C         45.28187        27.35595        -1.05658
C         44.13973        26.45214        -0.59443
C         45.31917        28.74904        -0.11918
C         43.94858        29.46622        -0.18556
C         45.14291        31.42105         0.92808
C         43.97118        30.76630         0.62681
C         45.26954        32.89937         0.56732
C         43.94863        33.71680         0.79188
C         45.14160        35.94963         0.54995
C         43.95350        35.09477         0.07216
C         45.13434        37.30894        -0.11626
C         43.99960        37.91920        -0.57554
C         45.31892        39.98957        -1.28458
C         43.96874        39.33858        -0.96730
C         45.34928        41.51254        -1.19885
C         44.05675        42.23608        -1.29279
C         45.30379        44.39512        -0.67881
C         43.95334        43.64199        -0.71675
C         45.27556        45.96137        -0.86956
C         44.05853        46.50826        -0.12927
C         43.61795        47.92918        -0.42664
C         47.70589        27.50803        -0.57007
C         46.67701        26.86802        -0.79146
C         47.84439        28.88811        -0.08348
C         46.52330        29.68227        -0.51324
C         47.75107        31.63215         0.78079
C         46.41685        31.09457         0.15881
C         47.75165        33.12128         0.72121
C         46.45849        33.79450         1.04742
C         47.61594        36.04621         0.82143
C         46.46409        35.18473         0.33209
C         47.54213        37.40265         0.76209
C         46.48896        37.96337        -0.19566
C         47.61885        40.25241        -0.08692
C         46.38337        39.46110        -0.31815
C         47.82397        41.35572        -1.13285
C         46.53829        42.17883        -1.13674
C         47.90408        44.41420        -1.15608
C         46.58964        43.64044        -0.83320
C         47.68472        45.74156        -0.48635
C         46.63925        46.36968        -0.30338
C         50.50739        29.18077         0.07183
C         49.11129        29.58495         0.23395
C         50.31445        31.86951         0.42527
C         49.04182        31.13329         0.06133
C         50.22828        33.09244         1.30381
C         48.98810        33.87579         0.85812
C         50.04760        36.09211         1.66483
C         48.91686        35.36182         1.01220
C         49.94053        37.59393         1.77282
C         48.68019        38.25344         1.23157
C         50.10856        40.26618         0.51790
C         48.76995        39.66078         0.69884
C         50.26261        41.33242        -0.34228
C         49.13116        42.10318        -0.91683
C         50.19770        44.08717         0.11364
C         49.16418        43.62165        -0.79752
C         51.56194        29.83659         0.09014
C         52.75106        32.12642         0.42713
C         51.62268        31.32807        -0.19434
C         52.58332        33.23788         0.94504
C         51.46211        34.03387         1.32663
C         52.38445        36.38962         1.67438
C         51.37602        35.37181         1.57206
C         52.36872        37.62510         1.72582
C         51.19291        38.53433         2.12097
C         51.89788        40.97546         1.83826
C         51.17583        39.88199         1.44114
C         52.24889        42.18418         1.97871
C         52.04170        43.54558         1.92862
C         51.05854        43.98449         0.98043
O         46.06279        43.96756         0.49808
O         46.46385        40.36141         0.81113
O         42.66275        32.33107        -0.79121
O         36.17144        42.94400        -1.31676
O         49.33671        34.77052        -0.27920
O         37.56978        45.55235        -1.50226
O         49.67552        36.71860         2.92922
O         31.17876        38.69494        -0.79027
O         48.28733        29.05296         1.27976
O         41.29449        43.40844        -2.96072
O         32.69972        41.48060        -0.57892
O         45.92197        32.27851        -0.72596
O         39.20802        28.45978         1.16904
O         43.41582        41.95070        -2.56813
O         41.35028        29.86489         1.70754
O         42.11890        37.04936        -1.95442
O         35.15649        41.38038         1.91268
O         48.35191        39.40462         2.07598
O         35.36847        35.41330        -1.17410
O         49.63421        42.93910        -2.02117
O         45.59222        28.41570         1.22817
H         44.94456        27.73543         1.53413
O         35.87534        37.95539        -1.74851
H         35.68605        37.01171        -1.98737
O         37.89542        29.20159        -2.13736
H         37.03733        29.14683        -2.61863
O         41.63737        50.95559        -0.35882
H         42.54699        51.28276        -0.50349
O         38.27165        34.29278         1.78742
H         37.89292        33.55266         2.31807
O         37.72305        32.47876        -1.39981
H         37.91430        33.28016        -1.94252
O         41.25432        39.41716        -2.72342
H         41.72220        38.65307        -3.12830
O         43.26274        44.87671        -2.68776
H         42.66410        44.33719        -3.29323
O         41.51127        34.26093         2.20180
H         40.61205        34.48053         2.53394
O         38.64371        42.23525        -2.29853
H         39.42093        42.61658        -2.78885
O         34.14028        44.48290        -0.65250
H         34.53091        44.75559        -1.50850
O         32.41888        33.69475        -0.63931
H         33.01691        33.22121        -1.26660
O         34.91432        31.06838         2.11984
H         35.81782        31.00951         2.51764
O         45.25124        46.34044        -2.20882
H         45.97385        45.88439        -2.69254
O         46.50458        33.98116         2.47675
H         46.64588        33.09421         2.88259
O         39.55881        43.78841         0.92809
H         39.10811        43.08224         1.45360
O         47.97871        40.66782        -2.39401
H         48.28834        41.32049        -3.05790
O         42.99849        27.93610         1.50445
H         42.64327        28.57145         2.17008
O         47.86599        44.64830        -2.56139
H         48.78054        44.75788        -2.89887
O         32.50407        30.99007         1.81906
H         31.88621        31.48255         2.41267
O         35.13866        40.49061        -1.65142
H         35.22118        39.64088        -2.14533
O         51.21580        38.73168         3.50690
H         50.90499        37.90073         3.93378
O         47.04341        37.55597        -1.50838
H         46.60415        38.10497        -2.20877
O         37.51328        31.62558         2.12539
H         38.43653        31.63330         2.49161
O         39.74424        45.14837        -2.40398
H         40.20783        44.63340        -3.13187
O         52.70793        44.45937         2.67479
H         53.31724        44.00491         3.28929
O         45.61973        39.57571        -2.64031
H         44.93823        39.96866        -3.22874
O         46.66872        34.90066        -1.06209
H         46.94349        35.74845        -1.50137
O         43.70273        29.93145        -1.51413
H         44.38649        30.59724        -1.74826
O         34.01550        31.73515        -1.38464
H         34.53183        31.14379        -1.98183
O         35.08540        29.17786        -2.36606
H         34.27167        28.79407        -2.76174
O         38.33766        41.51700         1.33065
H         37.65277        40.97294         1.80679
O         39.90395        32.59406         2.34873
H         40.68417        32.05726         2.61355
O         45.08690        36.22373         1.96994
H         44.23494        36.70258         2.13528
O         34.01281        33.57531         2.64355
H         34.21657        32.61421         2.80880
O         43.53276        43.47323         0.65508
H         44.33828        43.28264         1.19023
O         40.40940        39.75435         0.80646
H         39.83382        40.39556         1.29303
O         44.07989        34.88455        -1.33768
H         44.98106        34.51509        -1.52353
O         48.79633        31.34664        -1.36573
H         49.67626        31.48001        -1.79821
O         35.60067        37.28740         1.90441
H         35.38642        38.15921         2.30416
O         51.49840        41.75523        -0.70865
H         51.37908        42.43239        -1.41491
O         36.73356        39.43790         1.50379
H         37.41193        38.75449         1.70437
O         42.70045        27.80909        -2.11747
H         42.84223        27.06315        -2.73652
O         31.31762        33.06783         2.77639
H         31.08659        33.74288         3.46022
O         45.14019        27.64117        -2.41611
H         45.77409        28.35768        -2.65550
O         38.76289        39.40325        -2.51048
H         38.70039        40.35716        -2.77147
O         35.61859        43.76286         2.52545
H         35.39945        43.12812         3.23978
O         43.93638        33.87800         2.21792
H         44.63226        34.53631         2.48359
O         42.53192        36.47012         1.56567
H         42.36062        35.72197         2.19719
O         38.95559        34.66520        -1.75395
H         39.18600        35.47443        -2.25851
O         41.52633        34.48928        -1.43252
H         41.88709        35.19470        -2.02042
O         47.73504        31.32109         2.19131
H         48.59926        31.61543         2.58474
O         46.55226        29.88155        -1.92823
H         47.27751        30.53126        -2.11510
O         40.16942        27.82208        -2.20482
H         40.18030        27.06578        -2.82695
O         44.37843        26.06084         0.72888
H         43.66271        25.46508         1.03127
O         31.95378        35.37470         3.23497
H         32.82919        34.92794         3.35708
O         44.34415        46.47362         1.27871
H         45.31447        46.60253         1.39715
O         51.59730        31.50741        -1.59745
H         52.34696        31.01755        -1.99490
O         41.71700        46.87829         1.34831
H         42.64356        46.91021         1.68619
O         49.99489        32.69755         2.69848
H         50.78974        32.20703         3.00196
