         404
 CSIRO Nanostructure Databank - Neutral Graphene Oxide Data Set
C          1.35213         3.54336         1.48898
C          0.15783         4.23604         1.61554
C          1.31405         6.38062         1.36664
C          0.13137         5.63572         1.55120
C          1.30879         7.83384         1.29989
C          0.10864         8.57688         1.37378
C          1.32168        10.69007         1.17768
C          0.11091         9.95651         1.29110
C          1.32428        12.14521         1.06283
C          0.08367        12.83040         0.82178
C          1.17541        15.03035         0.69566
C          0.00014        14.16390         0.55520
C          1.15295        16.39595         0.10534
C         -0.01557        17.12152         0.02021
C          1.10493        19.20388        -0.67301
C         -0.04876        18.48752        -0.36118
C          1.12855        20.62870        -0.87026
C         -0.10129        21.36788        -0.90330
C          1.07964        23.38516        -1.62914
C         -0.14744        22.67064        -1.29443
C          1.04882        24.98117        -1.70248
C         -0.19231        25.72200        -1.39601
C          1.02354        27.85584        -1.09297
C         -0.20520        27.03025        -1.06563
C          1.04733        29.25679        -0.55877
C         -0.14690        29.99852        -0.44967
C          1.08672        32.04015         0.08250
C         -0.12671        31.34742        -0.12280
C          1.11840        33.46426         0.37619
C         -0.07388        34.22560         0.49274
C          1.18380        36.26521         0.91797
C         -0.04514        35.58267         0.76130
C          1.22895        37.67184         1.18812
C          3.79113         3.55189         1.14150
C          2.57153         4.24826         1.29377
C          3.77355         6.40007         1.04800
C          2.54950         5.68215         1.24331
C          3.77130         7.82365         1.02536
C          2.53547         8.54918         1.17264
C          3.83900        10.71788         1.29271
C          2.53430         9.97245         1.15211
C          3.78771        12.16889         0.87518
C          2.54860        12.85535         0.96082
C          3.77206        15.08789         0.57961
C          2.50789        14.33835         0.89864
C          3.70829        16.40454        -0.07604
C          2.39965        16.96886        -0.42086
C          3.63684        19.19390        -0.87470
C          2.36218        18.46496        -0.85389
C          3.60228        20.60698        -0.98501
C          2.36907        21.31318        -1.06083
C          3.55842        23.48356        -1.39368
C          2.36702        22.73883        -1.33291
C          3.52754        24.92782        -1.42841
C          2.32044        25.62842        -1.42333
C          3.55815        27.68826        -0.67561
C          2.31559        27.09516        -1.24445
C          3.53261        29.13372        -0.27759
C          2.27024        29.91204        -0.31961
C          3.56958        31.97176         0.18953
C          2.30722        31.30596        -0.01299
C          3.60290        33.38716         0.45932
C          2.36685        34.12336         0.54266
C          3.64203        36.22244         0.94166
C          2.40112        35.53141         0.80209
C          3.66893        37.62632         1.21875
C          2.42184        38.32833         1.33752
C          6.22813         3.54361         0.73835
C          5.00526         4.24002         0.91858
C          6.20757         6.37467         0.61404
C          4.99102         5.67560         0.87104
C          6.18406         7.80776         0.52670
C          4.99258         8.53464         0.76936
C          6.17606        10.66175         0.35136
C          5.02073         9.96083         0.75703
C          6.14959        12.08995         0.18565
C          4.99548        12.81953         0.49023
C          6.20115        14.97260        -0.24041
C          5.04504        14.30128         0.39346
C          6.16726        16.37027        -0.47312
C          4.88620        17.07350        -0.45409
C          6.08408        19.10748        -1.29784
C          4.84265        18.44888        -0.84789
C          6.07503        20.60219        -1.45530
C          4.90001        21.36747        -0.87512
C          6.01722        23.46863        -1.62078
C          4.84533        22.80869        -1.33391
C          6.01566        24.94331        -1.75830
C          4.78605        25.66384        -1.37662
C          6.06720        27.69657        -0.75784
C          4.82793        27.00499        -1.02057
C          6.05004        29.09935        -0.33542
C          4.81144        29.85438        -0.23105
C          6.06337        31.91430         0.29591
C          4.78158        31.22692         0.04664
C          6.09988        33.37777         0.59839
C          4.82139        34.09764         0.61233
C          6.11611        36.19564         0.94494
C          4.86831        35.50607         0.81611
C          6.13202        37.59219         1.25177
C          4.90098        38.28287         1.38177
C          8.68686         3.55540         0.33354
C          7.43434         4.23583         0.50916
C          8.67992         6.36206         0.06566
C          7.41034         5.65540         0.44052
C          8.62253         7.82802         0.35718
C          7.41660         8.51926         0.32099
C          8.58188        10.63872        -0.26383
C          7.39516         9.95103         0.12542
C          8.59748        12.01445        -0.47875
C          7.27495        12.73227        -0.59426
C          8.59096        14.88889        -0.75301
C          7.37381        14.22973        -0.46734
C          8.60423        16.31049        -0.88394
C          7.37801        17.03653        -0.83676
C          8.58639        19.14831        -1.31033
C          7.38660        18.43601        -1.15652
C          8.58039        20.59867        -1.51586
C          7.37282        21.29817        -1.53382
C          8.63377        23.50216        -1.78500
C          7.29793        22.73447        -1.81260
C          8.63109        24.93796        -1.47728
C          7.35782        25.70577        -1.59768
C          8.53504        27.61393        -0.48938
C          7.27778        27.03268        -0.96862
C          8.53746        29.08451        -0.11415
C          7.25813        29.77191        -0.17822
C          8.58422        31.98096        -0.21661
C          7.28826        31.24187        -0.21024
C          8.57181        33.46394         0.01187
C          7.34810        34.14420         0.42170
C          8.62018        36.20658         0.90972
C          7.36449        35.50909         0.72155
C          8.60896        37.59684         1.32106
C          7.37624        38.26256         1.43992
C         11.12680         3.38362         0.15539
C          9.92953         4.21186         0.38753
C         11.12302         6.45653         0.59260
C          9.94178         5.64440         0.51303
C         11.11796         7.82641         0.33360
C          9.87495         8.64496         0.46476
C         11.10487        10.60210        -0.52507
C          9.81952         9.81059        -0.51500
C         11.06934        12.00945        -0.76668
C          9.82373        12.72120        -0.73752
C         11.05200        14.84478        -1.02791
C          9.82326        14.14146        -0.85821
C         11.06346        16.28694        -1.11647
C          9.84131        17.01071        -1.08322
C         11.07370        19.14198        -1.24075
C          9.84148        18.44047        -1.21201
C         11.07961        20.58632        -1.35553
C          9.83760        21.32118        -1.52390
C         11.07582        23.47125        -1.35750
C          9.86085        22.73265        -1.51838
C         11.09716        24.86510        -1.19810
C          9.82907        25.56115        -1.19154
C         11.09212        27.72743        -0.66488
C          9.81812        27.02009        -0.97005
C         11.03232        29.03747         0.05308
C          9.80493        29.84989        -0.09276
C         11.09337        31.93554         0.24623
C          9.84729        31.22150        -0.02485
C         11.11013        33.35026         0.46088
C          9.89727        34.16728         0.28221
C         11.07546        36.15058         1.20800
C          9.84191        35.52832         0.83132
C         11.07756        37.56109         1.57097
C          9.84334        38.24585         1.59528
C         13.70839         3.21495         0.41616
C         12.36173         3.68343         0.65960
C         13.60577         6.29761         0.31854
C         12.41358         5.84957         0.84235
C         13.65726         7.75041         0.03005
C         12.37654         8.55301         0.15715
C         13.55679        10.58632        -0.65760
C         12.31488         9.93143        -0.38359
C         13.54739        11.98565        -0.95203
C         12.29651        12.71342        -0.95690
C         13.51018        14.85270        -1.41431
C         12.26750        14.12098        -1.11300
C         13.54869        16.30899        -1.22639
C         12.30685        16.99861        -1.17523
C         13.57223        19.09844        -1.10132
C         12.31381        18.42517        -1.18108
C         13.52506        20.56059        -0.94076
C         12.28853        21.26727        -1.29165
C         13.63884        23.48191        -1.41682
C         12.33547        22.72330        -1.49325
C         13.61501        24.92819        -1.09994
C         12.35147        25.59770        -0.98894
C         13.58137        27.67379        -0.41836
C         12.36248        26.96814        -0.66093
C         13.59140        29.05673        -0.06311
C         12.33014        29.75099         0.26216
C         13.54210        31.89720         0.47737
C         12.30198        31.21817         0.34090
C         13.53461        33.28537         0.79454
C         12.29132        34.00693         0.86422
C         13.49258        36.04636         1.71925
C         12.26185        35.40926         1.20797
C         13.54573        37.52238         1.89041
C         12.30198        38.21402         1.84916
C         16.09630         3.39416         0.77781
C         14.82355         4.04110         0.53739
C         16.03913         6.17638         0.18085
C         14.83866         5.51662         0.38101
C         16.14259         7.54964        -0.40594
C         14.84193         8.35408        -0.64868
C         15.88697        10.56393        -1.22601
C         14.76575         9.83831        -0.82093
C         16.00200        11.96567        -1.07582
C         14.78229        12.66804        -1.09111
C         16.08826        14.82686        -1.21600
C         14.82027        14.10068        -1.39506
C         16.03875        16.23333        -1.23674
C         14.79339        16.97594        -1.18881
C         16.07302        19.14102        -0.98896
C         14.80441        18.41154        -1.08785
C         16.09040        20.53216        -0.95203
C         14.85091        21.32192        -0.90208
C         16.14002        23.45407        -1.39769
C         14.88209        22.74672        -1.17713
C         16.12482        24.94490        -1.24003
C         14.82552        25.61205        -0.92931
C         16.04909        27.70171        -0.31598
C         14.83412        26.99632        -0.57019
C         16.04815        29.07590        -0.01265
C         14.79489        29.76656         0.07839
C         15.99636        31.90143         0.37382
C         14.77625        31.18381         0.35433
C         15.96871        33.30802         0.58389
C         14.77491        33.96071         0.91292
C         16.09076        36.02758         1.63675
C         14.79325        35.29733         1.53641
C         16.07823        37.53068         2.02965
C         14.75998        38.17945         2.07699
C         18.44212         3.52413         1.51559
C         17.26874         4.09210         0.89439
C         18.39394         6.34055         1.01661
C         17.37258         5.47681         0.31175
C         18.39682         7.73150         0.74505
C         17.42066         8.27086        -0.15093
C         18.52167        10.51150        -0.02568
C         17.66624         9.54859        -0.64611
C         18.38822        11.94718        -0.24946
C         17.27853        12.62138        -0.81238
C         18.50461        14.78315        -0.76205
C         17.28488        14.08392        -0.93115
C         18.62747        16.17344        -1.19404
C         17.28794        16.98102        -1.37024
C         18.57075        19.06213        -0.97204
C         17.33327        18.42353        -1.07243
C         18.65013        20.50826        -0.70609
C         17.34129        21.27809        -0.75320
C         18.68655        23.43541        -0.83301
C         17.43242        22.71129        -1.16887
C         18.67649        24.83566        -0.64027
C         17.41143        25.60754        -0.81943
C         18.58844        27.68381         0.14065
C         17.31119        26.94487        -0.16469
C         18.54196        29.15641         0.06476
C         17.28897        29.81648         0.12823
C         18.47962        31.99382         0.14046
C         17.25810        31.23489         0.21352
C         18.44770        33.40754         0.13587
C         17.19034        34.08205         0.33541
C         18.52489        36.22143         0.99762
C         17.23155        35.56332         0.82195
C         18.51836        37.57973         1.48062
C         17.30753        38.25953         1.75311
C         19.46723         4.31916         1.93540
C         20.45938         6.59718         2.26846
C         19.43473         5.75670         1.74670
C         20.47738         7.94979         2.00206
C         19.47061         8.56543         1.19901
C         20.56188        10.82056         1.32712
C         19.49019         9.96356         0.86592
C         20.55835        12.14549         1.07615
C         19.33772        12.83934         0.55001
C         20.79695        14.87857         0.05560
C         19.61238        14.17053        -0.11606
C         20.90575        16.24370        -0.29743
C         19.83950        16.92377        -0.86299
C         21.01648        19.09201        -1.18831
C         19.83411        18.36288        -1.05596
C         21.04225        20.50838        -1.20976
C         19.90420        21.24572        -0.93565
C         21.08677        23.40108        -0.46979
C         19.89714        22.69730        -0.75008
C         21.06642        24.77217        -0.24376
C         19.87469        25.51408        -0.32436
C         20.96135        27.80472        -0.65308
C         19.94412        26.98157         0.09778
C         20.90408        29.15217        -0.63905
C         19.73555        29.89166        -0.16572
C         20.92429        32.10472        -0.17865
C         19.71863        31.30438        -0.08525
C         20.91096        33.45695        -0.19986
C         19.64014        34.26150        -0.23779
C         20.90667        36.31577         0.61536
C         19.70753        35.59888         0.53348
C         20.92675        37.63876         1.10148
C         19.76795        38.26982         1.50938
O          4.73983        14.97457         1.67639
O          1.79900        14.95214         2.03208
O         16.94792        22.93405        -2.53255
O         15.47436         7.61609        -1.71940
O         13.05500        23.11746        -2.74130
O         11.61606        29.06168         1.38426
O          9.31131        34.12335        -1.07023
O          1.02190        24.13473        -2.87694
O         16.37796        36.41251         2.98517
O          8.55179        28.00124         0.91364
O         17.79492        27.05551         1.21947
O         14.14699        14.40912        -2.67266
O         13.35138         8.49093         1.27889
O          1.73803        27.80551        -2.39081
O         17.97114        20.97288         0.52532
O          6.70462        25.54283        -2.89177
O          5.84404        19.76919        -2.61829
O         12.37644         4.70979         1.63431
O         14.08587        35.28060         2.82141
O         16.94350        25.67019        -2.21032
O          7.86375        31.70732        -1.48397
O         16.91076        35.24459        -0.56881
O          6.21609        32.35175         1.69432
O         10.48228        27.81575        -2.01044
O         16.97757         9.91576        -1.80564
O         14.06875        21.02306         0.35581
O          7.98697        23.12544        -3.04200
O          3.45198        28.03015         0.74609
O         18.08611        16.52519        -2.49933
O          2.29264        17.38064        -1.82473
O          6.87962        12.52339        -2.01715
H          7.51910        13.01951        -2.57246
O         20.42154        26.95770         1.47593
H         19.64026        26.74902         2.03677
O          5.21188        21.44033         0.56359
H          4.46169        21.88436         1.01290
O          9.91793         9.24132         1.79600
H         10.14981         8.54059         2.44090
O          8.73952         6.34003        -1.43207
H          9.16059         7.18564        -1.72276
O         18.56394        13.21203         1.75856
H         18.41803        12.38943         2.27285
O         19.44411        34.67467        -1.63292
H         18.53981        35.06878        -1.67747
O          9.67726         9.19940        -1.83864
H          9.51501         9.91379        -2.49072
O          4.07773        10.77164         2.76386
H          3.43168        11.40962         3.13775
O         17.88655         5.30751        -1.05497
H         17.16319         4.93411        -1.60155
H          1.36742         2.44508         1.53337
H         -0.78182         3.68609         1.76493
H         -0.83580         6.14533         1.65337
H         -0.85443         8.06160         1.48591
H         -0.85228        10.47910         1.34966
H         -0.83687        12.23785         0.74026
H         -0.95517        14.59687         0.22824
H         -0.95742        16.66857         0.36114
H         -1.01734        18.99955        -0.29275
H         -1.04557        20.85039        -0.69009
H         -1.11606        23.16995        -1.42814
H         -1.14423        25.17350        -1.43587
H         -1.16010        27.50584        -0.79776
H         -1.11391        29.51372        -0.64072
H         -1.08512        31.87820        -0.05306
H         -1.05010        33.73736         0.37300
H         -0.98669        36.14362         0.84980
H          0.27981        38.22035         1.27720
H          3.79201         2.45244         1.18151
H          2.44022        39.40716         1.54988
H          6.23096         2.44448         0.78558
H          4.91184        39.35903         1.61091
H          8.67164         2.45945         0.23750
H          7.36508        39.32703         1.71884
H         11.00087         2.51754        -0.51131
H          9.83021        39.31069         1.87305
H         13.88242         2.13585         0.27233
H         12.29169        39.29565         2.05151
H         16.07250         2.33310         1.07404
H         14.75073        39.27954         2.12770
H         18.44862         2.44587         1.73616
H         17.30765        39.35792         1.80592
H         20.32816         3.88171         2.46172
H         21.26565         6.14711         2.86559
H         21.30635         8.55049         2.39945
H         21.42928        10.37170         1.82970
H         21.40270        12.75353         1.42809
H         21.66168        14.41292         0.54564
H         21.83370        16.77993        -0.05370
H         21.96837        18.55354        -1.29578
H         22.00275        21.01310        -1.38396
H         22.03706        22.85595        -0.38650
H         21.99798        25.28980         0.02382
H         21.83511        27.29433        -1.08451
H         21.71966        29.72679        -1.10201
H         21.89251        31.58366        -0.20986
H         21.86795        33.99044        -0.29081
H         21.85136        35.86577         0.28295
H         21.88471        38.17596         1.14420
H         19.79984        39.30279         1.88354
