         349
 CSIRO Nanostructure Databank - Neutral Graphene Oxide Data Set
C          1.32051         3.38891        -1.03838
C          0.09737         4.04951        -0.94351
C          1.21885         6.21414        -1.09678
C          0.04205         5.44225        -0.96393
C          1.15749         7.68150        -1.12363
C         -0.01365         8.39769        -0.95805
C          1.08020        10.58346        -0.61760
C         -0.05874         9.80676        -0.73730
C          1.08562        12.00210        -0.28161
C         -0.05250        12.70340         0.03416
C          1.10547        14.85934         0.26802
C         -0.05324        14.13210         0.20421
C          1.15742        16.30521         0.45022
C          0.04734        17.00597         0.95350
C          1.31879        19.07376         1.00628
C          0.13243        18.36905         1.23244
C          1.37839        20.56482         1.26607
C          0.53006        21.08872         2.40121
C          1.78947        23.19692         2.40489
C          0.70235        22.35343         2.85979
C          1.83700        24.58529         2.56461
C          0.78055        25.31726         3.25511
C          1.85213        27.50561         2.87118
C          0.79385        26.65765         3.45130
C          2.08191        28.90035         3.33552
C          3.79132         3.43256        -1.21452
C          2.51729         4.12489        -1.15673
C          3.74192         6.29392        -1.46028
C          2.46205         5.53988        -1.18133
C          3.70322         7.73989        -1.02677
C          2.41745         8.44156        -1.23606
C          3.61823        10.54942        -0.41380
C          2.36813         9.93068        -0.93207
C          3.63012        12.02937        -0.17848
C          2.36252        12.80565        -0.50299
C          3.60004        14.93117        -0.13647
C          2.41388        14.10765         0.31910
C          3.54365        16.28673        -0.29247
C          2.35198        17.01542         0.14102
C          3.63248        19.14813         0.06182
C          2.42270        18.41654         0.39167
C          3.81941        20.45695         0.51485
C          2.80605        21.05575         1.40707
C          4.06739        23.27208         1.25291
C          2.96331        22.50021         1.84420
C          4.06325        24.69347         1.42308
C          2.98785        25.30702         2.08820
C          4.31675        27.45484         2.14826
C          2.98741        26.78046         2.21169
C          4.41650        28.91024         2.48934
C          3.21722        29.57318         3.06547
C          6.26550         3.41323        -1.03867
C          4.98545         4.10284        -1.11929
C          6.12305         6.22498        -0.68925
C          4.99162         5.55809        -1.03602
C          6.10287         7.67997        -0.30307
C          4.86449         8.42809        -0.75015
C          6.10545        10.57956        -0.56855
C          4.89182         9.85452        -0.61171
C          6.08637        12.04707        -0.55418
C          4.91825        12.73484        -0.35977
C          6.16268        14.99025        -0.43443
C          4.90182        14.21472        -0.22637
C          6.08880        16.51079        -0.58569
C          4.66913        16.98618        -1.07011
C          5.95817        19.22187        -0.89077
C          4.58656        18.57859        -0.95479
C          6.07555        20.58734        -0.50890
C          4.97274        21.23262         0.17566
C          6.10669        23.41379        -0.24363
C          5.04066        22.62081         0.48396
C          6.21966        24.87041         0.12108
C          5.15490        25.50245         0.86190
C          6.22035        27.71812         0.52459
C          5.26716        26.84403         1.20191
C          6.42689        29.10888         1.01501
C          5.50945        29.68594         1.87972
C          8.74649         3.35311        -0.70421
C          7.40710         4.05592        -0.69327
C          8.63972         6.23139        -0.90168
C          7.39363         5.51386        -0.29921
C          8.57845         7.74336        -0.71060
C          7.38111         8.43409        -0.61875
C          8.58827        10.61012        -0.35953
C          7.33693         9.86747        -0.56775
C          8.60266        12.13553        -0.49279
C          7.34168        12.76984        -1.03078
C          8.58473        14.93808        -1.05081
C          7.40153        14.27609        -0.85267
C          8.62143        16.47155        -1.05195
C          7.20701        17.04146        -1.53970
C          8.14832        19.39927        -1.81280
C          7.07149        18.57637        -1.45743
C          8.40543        20.66656        -1.26899
C          7.32453        21.26353        -0.60879
C          8.68289        23.43374        -0.47461
C          7.43010        22.67835        -0.18858
C          8.59942        24.91314        -0.60391
C          7.33496        25.58487        -0.31208
C          8.49017        27.85814        -0.84311
C          7.27237        27.05830        -0.36539
C          8.63449        29.22642        -0.16075
C          7.58083        29.81502         0.57952
C         10.95935         3.53737         0.50566
C          9.86867         4.16713        -0.08789
C         10.99319         6.32356         0.07102
C          9.86991         5.57847        -0.29154
C         11.12460         7.73953        -0.33890
C          9.83873         8.49144        -0.75565
C         11.06497        10.64711        -0.38279
C          9.86108         9.92696        -0.50422
C         11.07081        12.07612        -0.61103
C          9.87835        12.79191        -0.79400
C         11.07880        14.85768        -1.29125
C          9.86258        14.20306        -1.11857
C         11.13477        16.27880        -1.53963
C          9.91254        16.97269        -1.72864
C         11.18266        19.07457        -1.80887
C         10.05356        18.30447        -2.12639
C         11.07791        20.52114        -1.44068
C          9.78686        21.25758        -1.19584
C         11.02120        23.43333        -1.27322
C          9.87152        22.74535        -1.05937
C         11.09642        24.85049        -0.70860
C          9.77218        25.59584        -0.77504
C         11.02970        27.82336        -0.97897
C          9.79306        27.07054        -0.66227
C         10.89635        29.32100        -1.27690
C          9.82674        29.89359        -0.37036
C         13.24783         3.70922         1.55290
C         12.09562         4.27970         0.94452
C         13.18945         6.47605         1.15831
C         12.08094         5.68832         0.73102
C         13.02695         7.89578         1.13516
C         12.17613         8.56655         0.26700
C         13.51733        10.71222         0.05834
C         12.27538         9.97988         0.00652
C         13.53179        12.05521        -0.49555
C         12.35002        12.71560        -0.77973
C         13.64965        14.77532        -1.65855
C         12.34949        14.09146        -1.33611
C         13.68388        16.28016        -1.92708
C         12.37433        16.97397        -1.61798
C         13.59456        19.15372        -1.14180
C         12.37459        18.38221        -1.56966
C         13.54120        20.62691        -1.54778
C         12.35556        21.28827        -1.59409
C         13.54548        23.51289        -1.44954
C         12.27347        22.78813        -1.87160
C         13.47806        24.96400        -1.34954
C         12.29272        25.63010        -1.20395
C         13.49204        27.86366        -1.23738
C         12.22518        27.10230        -1.56037
C         13.43813        29.29781        -1.09511
C         12.22328        29.99798        -1.10733
C         15.57456         3.88348         2.43118
C         14.41353         4.46477         1.79654
C         15.69528         6.58293         1.37514
C         14.40693         5.87615         1.53456
C         15.87794         8.01222         1.08670
C         14.86409         8.95347         1.20790
C         16.05340        10.61589        -0.20040
C         14.76130        10.13560         0.43710
C         16.09481        12.12724        -0.19634
C         14.81454        12.82472        -0.50268
C         16.17188        14.89869        -1.03423
C         14.97778        14.03561        -1.42378
C         16.14315        16.26990        -1.17170
C         14.91168        17.01858        -1.41739
C         16.13160        19.17980        -1.32689
C         14.88039        18.39484        -1.41529
C         16.11446        20.68405        -1.45157
C         14.81489        21.39896        -1.87200
C         15.97652        23.51797        -1.06029
C         14.74971        22.84257        -1.41636
C         16.02311        24.98527        -1.22241
C         14.74241        25.73448        -1.47633
C         15.93026        27.91252        -1.03350
C         14.71503        27.20038        -1.21476
C         15.89460        29.32882        -0.84959
C         14.66279        29.99965        -0.91226
C         17.83400         4.13092         3.44182
C         16.75708         4.58320         2.59976
C         18.15982         6.67789         2.11407
C         16.96689         5.84081         1.85928
C         18.31000         7.93760         1.50300
C         17.22665         8.46839         0.58290
C         18.46460        10.65582         0.51098
C         17.26745         9.97491         0.42646
C         18.60384        12.00912        -0.12000
C         17.39043        12.80700        -0.45115
C         18.68250        14.92383        -0.64653
C         17.41043        14.15640        -0.74553
C         18.57996        16.37943        -0.44284
C         17.43794        17.06415        -1.13585
C         18.39211        19.25779        -0.32663
C         17.29671        18.51269        -0.74121
C         18.33621        20.71269        -0.29285
C         17.20144        21.41278        -0.75180
C         18.18767        23.59909         0.10845
C         17.11240        22.83797        -0.64140
C         18.30043        25.06899        -0.26274
C         17.21739        25.73002        -0.77548
C         18.43322        27.98148        -0.46606
C         17.21706        27.19903        -0.98500
C         18.25480        29.40967        -0.13288
C         17.07486        30.05097        -0.44905
C         18.96536         4.88177         3.61865
C         20.31384         6.94343         3.20966
C         19.15121         6.16599         2.98902
C         20.46747         8.17722         2.60592
C         19.46978         8.72494         1.74783
C         20.78587        10.81547         1.36882
C         19.59939        10.04433         1.16377
C         20.93373        12.09960         0.92787
C         19.92737        12.73957         0.06805
C         20.86070        15.05834         0.66394
C         19.94998        14.22867        -0.13838
C         20.72911        16.40492         0.72210
C         19.62485        17.10609         0.09428
C         20.68528        19.31570         0.52123
C         19.58784        18.56749         0.11606
C         20.64772        20.72010         0.52841
C         19.50987        21.43394         0.14790
C         20.66553        23.62047         0.34120
C         19.51547        22.88281         0.14863
C         20.65527        25.03915         0.40307
C         19.51583        25.77823         0.12022
C         20.46346        27.94141         0.90923
C         19.51844        27.23091         0.19307
C         20.39773        29.36140         1.03110
C         19.33008        30.07500         0.54689
O         15.36246        12.85335         0.86201
O          1.94416        27.41474         1.39411
O          5.78272        14.60163         0.94078
O         19.79816        14.58951        -1.53900
O          9.01017        18.93363        -2.78800
O          6.05228        27.59282        -0.93212
O          8.33271        22.98608         0.90753
O         16.57310        19.86632        -2.58543
O         10.81947         8.00037        -1.73751
O         12.90532        14.10208        -2.73578
O          3.32060        21.34728         2.72315
O          8.35026        28.10671        -2.21935
O          2.47097         9.45998        -2.31432
O         10.54235        20.63959        -0.05723
O         16.56090         5.77597         0.47828
O         19.63842        11.99691        -1.15788
O          8.51781        11.53050         0.80931
O         15.59914        25.37016        -2.59623
O         18.25259        27.68723        -1.89029
O          4.90881        27.83774         3.43355
O          4.48766        16.62649        -2.40467
O         13.77879         8.62981         2.05132
O          3.50084        11.12144         0.94160
O          6.02933         7.66720         1.11935
O         10.70074        27.53058         0.40913
O          0.89670        21.20877         0.04131
H          0.05545        20.77966        -0.22128
O          9.10763         3.12644        -2.08491
H          9.00645         3.99277        -2.54644
O         16.01794        10.21586        -1.59982
H         16.39373         9.30226        -1.65494
O          2.63058        13.71384         1.69671
H          2.85080        14.51107         2.22048
O          8.86819        16.91313         0.30103
H          7.99941        17.03621         0.76366
O         12.05077        27.15069        -3.00458
H         12.82147        26.71491        -3.42618
O         17.82913        17.12743        -2.55312
H         18.63278        17.68479        -2.62422
O         14.81029        21.50414        -3.33003
H         15.40195        20.78386        -3.66273
O          8.66491         5.98684        -2.33641
H          9.40923         6.51621        -2.70353
O          7.39232        12.52563        -2.47350
H          6.80158        13.16747        -2.92223
O          5.74488        23.38250        -1.66055
H          4.98511        23.98603        -1.80092
O          7.01679        16.52768        -2.84819
H          6.02699        16.57540        -3.03261
O         13.82197        16.42821        -3.37379
H         13.31776        15.68909        -3.78578
O         17.71395        23.59761         1.50874
H         18.43940        23.95812         2.06199
O          7.54196         5.56744         1.13811
H          6.98590         6.34819         1.45352
O         13.54330        19.19261         0.33066
H         12.66822        19.56386         0.58417
O          3.83081         6.40561        -2.92746
H          3.01952         6.85680        -3.24587
O         10.50458        29.53571        -2.64614
H          9.64291        29.01539        -2.76835
O          3.99239        19.01448        -2.20022
H          3.99150        18.18061        -2.76962
O          2.41025        13.16596        -1.90150
H          2.14022        12.39261        -2.43988
O         11.36542        24.65287         0.72032
H         10.60517        24.16492         1.10652
O         15.37754        13.47075        -2.69799
H         14.55622        13.28520        -3.20937
O          6.27197        17.08714         0.72884
H          5.98352        16.38945         1.37130
O         12.18449        22.93899        -3.31570
H         13.02093        22.57076        -3.68886
O         17.43209         7.93551        -0.77363
H         18.38787         8.00792        -0.98140
H          1.35972         2.29055        -1.01759
H         -0.83243         3.47143        -0.84900
H         -0.93635         5.93468        -0.88753
H         -0.97378         7.86526        -0.91327
H         -1.04764        10.25946        -0.57716
H         -1.01764        12.18238         0.11593
H         -1.03081        14.63391         0.25811
H         -0.88429        16.46999         1.17985
H         -0.74303        18.88132         1.65547
H         -0.30461        20.48585         2.78746
H         -0.00487        22.75186         3.60241
H         -0.04537        24.73334         3.68534
H          0.00545        27.13506         4.05210
H          1.24706        29.41041         3.84033
H          3.77961         2.33268        -1.24094
H          3.30962        30.63254         3.35023
H          6.28778         2.33666        -1.27079
H          5.63409        30.73964         2.17417
H          8.67988         2.34999        -0.21195
H          7.66737        30.87990         0.85065
H         10.95384         2.44370         0.62750
H         10.01227        30.84939         0.14866
H         13.25663         2.63150         1.77521
H         12.24803        31.09830        -1.05812
H         15.47258         2.88249         2.87725
H         14.63633        31.09104        -0.77614
H         17.72419         3.16753         3.96038
H         16.97334        31.12656        -0.24033
H         19.76586         4.51194         4.27584
H         21.09726         6.56048         3.87925
H         21.37915         8.74850         2.82332
H         21.61280        10.37758         1.94340
H         21.85382        12.64474         1.17832
H         21.65108        14.57350         1.25358
H         21.44585        16.97555         1.32760
H         21.61539        18.82430         0.83432
H         21.54857        21.25385         0.85860
H         21.63760        23.11984         0.44838
H         21.60165        25.55248         0.62115
H         21.28479        27.41464         1.41516
H         21.19957        29.87850         1.57616
H         19.26234        31.16009         0.71007
