         424
 CSIRO Nanostructure Databank - Neutral Graphene Oxide Data Set
C          1.15923         3.58171        -0.66986
C         -0.00583         4.21791        -0.21975
C          1.19179         6.33754        -0.06873
C          0.00818         5.57515         0.06870
C          1.21653         7.76460         0.19932
C          0.04436         8.46378         0.55891
C          1.22240        10.60055         0.54907
C          0.04541         9.83734         0.72946
C          1.21263        12.04166         0.60913
C          0.02568        12.74287         0.97095
C          1.12148        14.92005         0.85698
C          0.00114        14.11545         1.14470
C          1.12617        16.31717         1.07818
C         -0.04859        17.04731         1.44102
C          1.19524        19.15202         1.48252
C         -0.01397        18.40602         1.64305
C          1.13679        20.66127         1.59830
C          0.01601        21.26905         0.77684
C          1.03654        23.52283         1.07256
C         -0.04259        22.58936         0.56747
C          1.02890        24.88222         0.34340
C          0.19792        25.27160        -0.72804
C          1.33921        27.44807        -0.89365
C          0.29283        26.56135        -1.24975
C          1.39205        28.83093        -1.31978
C          0.28672        29.46353        -1.93404
C          1.41979        31.62287        -1.87516
C          0.28248        30.82665        -2.16677
C          1.41290        33.07335        -2.08964
C          0.30279        33.74350        -2.62442
C          1.39492        35.91892        -2.40879
C          0.28708        35.13313        -2.77609
C          1.39945        37.35046        -2.58785
C          3.56208         3.59760        -1.35304
C          2.34334         4.30293        -0.81415
C          3.63039         6.41721        -0.57247
C          2.37945         5.68778        -0.50652
C          3.65116         7.82720        -0.27356
C          2.43443         8.49733         0.06876
C          3.64779        10.65986         0.08953
C          2.43777         9.91675         0.24661
C          3.62769        12.09828         0.14466
C          2.40276        12.77316         0.34675
C          3.60054        15.01540         0.28161
C          2.27342        14.27137         0.11093
C          3.58301        16.36821         0.85746
C          2.37582        17.04565         1.04566
C          3.66370        19.19382         0.94645
C          2.37625        18.47373         1.25255
C          3.64135        20.67272         1.24009
C          2.44751        21.34652         1.26136
C          3.68996        23.50691         1.32970
C          2.41711        22.80751         0.86600
C          3.78814        24.87972         1.48076
C          1.97871        25.82879         0.73242
C          3.61894        27.67414         0.16213
C          2.33555        26.98954         0.01533
C          3.69434        28.97399        -0.37877
C          2.54490        29.60483        -1.00449
C          3.85937        31.74661        -1.30501
C          2.55995        30.98650        -1.34055
C          3.70806        33.23637        -1.17774
C          2.55427        33.85808        -1.69664
C          3.70113        36.05711        -1.52240
C          2.54432        35.28063        -1.86706
C          3.70135        37.49417        -1.76824
C          2.50071        38.09845        -2.28690
C          6.04081         3.60288        -1.00759
C          4.85123         4.32189        -1.05276
C          6.13486         6.42871        -0.53471
C          4.82837         5.72658        -0.82722
C          6.11516         7.92080        -0.87352
C          4.85342         8.58120        -0.36108
C          6.12761        10.73364        -0.49981
C          4.85714         9.96709        -0.18896
C          6.11055        12.14506         0.03292
C          4.89517        12.80289         0.12198
C          6.14337        14.93409         0.74805
C          4.90319        14.27922         0.25454
C          6.12215        16.23520         1.17559
C          4.84953        16.97076         1.30168
C          6.19980        19.15764         1.43183
C          4.88460        18.46555         1.47219
C          6.18291        20.62279         1.37284
C          4.92552        21.36093         1.26440
C          6.13897        23.54087         1.55367
C          4.90973        22.75832         1.33105
C          6.16302        24.96370         1.16581
C          4.93537        25.66248         1.09576
C          6.11028        27.67900         0.41640
C          4.84971        27.01386         0.62249
C          6.13026        29.08969         0.14612
C          4.90115        29.76246        -0.19992
C          6.04165        31.96303         0.10163
C          4.89487        31.13435        -0.41176
C          6.04851        33.35379        -0.45846
C          4.85689        34.00619        -0.83982
C          5.98496        36.26689        -0.48546
C          4.83555        35.43345        -1.00599
C          6.07226        37.64147        -1.11451
C          4.86305        38.23485        -1.59747
C          8.48164         3.52525        -0.74935
C          7.31020         4.23782        -0.88971
C          8.61220         6.39518        -0.61809
C          7.35689         5.73032        -1.15369
C          8.60287         7.81562        -0.28999
C          7.38378         8.58200        -0.37159
C          8.56783        10.66025         0.19408
C          7.38148         9.95975        -0.16473
C          8.58544        12.05689         0.34972
C          7.36051        12.82193         0.31557
C          8.61754        14.85178         1.00241
C          7.37804        14.17695         0.69823
C          8.64613        16.22394         1.31504
C          7.35851        16.91112         1.73109
C          8.66584        19.08718         1.67239
C          7.35750        18.41941         1.51455
C          8.67109        20.61024         1.59801
C          7.38535        21.30884         1.41495
C          8.64362        23.48707         1.07403
C          7.43942        22.77621         1.51948
C          8.64078        24.85676         0.86737
C          7.38763        25.60726         0.89032
C          8.61850        27.62568         0.18699
C          7.34401        26.97032         0.53226
C          8.62911        29.11945        -0.01643
C          7.34355        29.82692         0.08607
C          8.60121        31.92038        -0.03572
C          7.36259        31.22901        -0.00255
C          8.61837        33.34948        -0.40948
C          7.30908        34.08765        -0.59473
C          8.50750        36.24704        -0.46373
C          7.30834        35.54921        -0.53983
C          8.51677        37.69622        -0.69576
C          7.27526        38.31412        -1.11282
C         10.94696         3.51695        -0.68892
C          9.74288         4.20089        -0.64359
C         11.01716         6.24285         0.09218
C          9.74822         5.64711        -0.46281
C         11.04756         7.75253         0.04954
C          9.80059         8.45209         0.06749
C         11.08034        10.60171         0.47804
C          9.77537         9.85499         0.61722
C         11.08029        11.97817         0.62348
C          9.82999        12.73623         0.65038
C         11.09861        14.75137         1.44652
C          9.84027        14.09547         0.93682
C         11.12157        16.24769         1.23245
C          9.90466        16.94002         1.31255
C         11.11895        19.10753         1.25684
C          9.92206        18.38276         1.37911
C         11.11040        20.56079         1.13950
C          9.91117        21.26910         1.18768
C         11.15808        23.44765         0.71227
C          9.84745        22.68887         0.80335
C         11.14039        24.91026         0.83963
C          9.89538        25.57639         0.70509
C         11.09298        27.72029         0.61873
C          9.89132        26.97383         0.53807
C         11.05597        29.15606         0.54262
C          9.87927        29.84611         0.26874
C         11.07209        32.03396         0.31672
C          9.83107        31.27684         0.20839
C         11.03393        33.47857         0.17635
C          9.82064        34.14962        -0.12818
C         10.96137        36.32619         0.02611
C          9.74541        35.55005        -0.23163
C         10.94855        37.83353        -0.18638
C          9.69230        38.41635        -0.67403
C         13.41019         3.45492        -1.20074
C         12.19376         4.23491        -0.76735
C         13.42189         6.42892        -0.84237
C         12.23289         5.57763        -0.51069
C         13.54694         7.62799         0.11029
C         12.26109         8.42680         0.12936
C         13.54977        10.51887         0.33486
C         12.31857         9.85815         0.31625
C         13.62746        11.91794         0.88336
C         12.33711        12.70188         0.75206
C         13.65586        14.74058         1.30566
C         12.35470        14.03909         1.01266
C         13.58391        16.23476         1.10477
C         12.38277        16.94539         1.19758
C         13.57541        19.13366         1.08152
C         12.37914        18.40740         1.17105
C         13.58674        20.56572         0.95498
C         12.36305        21.27303         0.95656
C         13.59951        23.40991         0.98131
C         12.39947        22.69783         0.93159
C         13.60426        24.87973         1.33421
C         12.34101        25.63182         0.96631
C         13.56949        27.80208         0.90608
C         12.33353        27.04342         0.87856
C         13.56506        29.18338         0.81641
C         12.25811        29.92877         1.01843
C         13.53478        32.13230         0.81778
C         12.26113        31.36813         0.56882
C         13.52772        33.52314         0.22661
C         12.25946        34.22784         0.15579
C         13.45998        36.32762        -0.52351
C         12.24050        35.60751        -0.02416
C         13.44408        37.82957        -0.34355
C         12.24931        38.51279        -0.37273
C         15.89873         3.56067        -1.33715
C         14.69555         4.24714        -1.15063
C         15.92512         6.34367        -0.88534
C         14.70662         5.63844        -0.92292
C         15.94551         7.77558        -0.63230
C         14.76892         8.45052        -0.24177
C         15.98459        10.58752        -0.19862
C         14.77331         9.84484        -0.02038
C         16.00243        12.01873        -0.01270
C         14.83648        12.70725         0.43079
C         16.04663        14.83786         0.40334
C         14.85506        14.08676         0.64341
C         16.09210        16.25178         0.64319
C         14.87886        16.92822         1.14257
C         16.09100        19.16139         0.73483
C         14.87370        18.45128         1.16059
C         16.05955        20.58632         0.65603
C         14.81909        21.28616         0.82437
C         16.04160        23.44446         0.60703
C         14.82725        22.71023         0.85046
C         16.01411        24.91424         0.61558
C         14.86243        25.59974         0.91310
C         16.08102        27.79865         0.65723
C         14.87439        27.08470         1.20153
C         16.04286        29.22134         0.55762
C         14.80211        29.92766         0.68192
C         15.99360        32.03385         0.30539
C         14.79322        31.33834         0.52455
C         16.01988        33.48753        -0.10001
C         14.71063        34.21874         0.05792
C         15.94108        36.35787        -0.08779
C         14.73646        35.63836        -0.13677
C         15.91918        37.80814        -0.22947
C         14.70399        38.49881        -0.33305
C         18.36646         3.56094        -1.59881
C         17.12989         4.24620        -1.35531
C         18.37427         6.37587        -1.22243
C         17.14276         5.65516        -1.14026
C         18.38525         7.79653        -1.07108
C         17.16576         8.49419        -0.76555
C         18.40456        10.63521        -0.74186
C         17.17759         9.90709        -0.56464
C         18.41330        12.05374        -0.58333
C         17.20550        12.74584        -0.22146
C         18.44582        14.89433        -0.18966
C         17.22582        14.15947        -0.02212
C         18.46686        16.30636         0.01921
C         17.26450        16.99227         0.41444
C         18.48579        19.17463         0.23311
C         17.27208        18.44537         0.48429
C         18.48474        20.60072         0.23152
C         17.25007        21.31672         0.40326
C         18.42024        23.47713        -0.19603
C         17.21555        22.74613         0.33784
C         18.44636        24.95104         0.14293
C         17.26842        25.63975         0.39433
C         18.49343        27.80780         0.20077
C         17.26683        27.09114         0.43612
C         18.49492        29.23393         0.20002
C         17.25731        29.94111         0.34839
C         18.47921        32.10769         0.19517
C         17.23642        31.35860         0.27549
C         18.47919        33.52366         0.29837
C         17.17168        34.23601         0.56073
C         18.38775        36.40480         0.15366
C         17.18522        35.69369         0.15634
C         18.36708        37.84492         0.00105
C         17.15299        38.51204        -0.16809
C         19.54794         4.24959        -1.65903
C         20.78963         6.40113        -1.59808
C         19.57954         5.67257        -1.49087
C         20.79860         7.77594        -1.46450
C         19.60698         8.50419        -1.20619
C         20.78801        10.69918        -1.26383
C         19.60651         9.94749        -1.07250
C         20.79552        12.07242        -1.11463
C         19.62252        12.77838        -0.76117
C         20.82877        14.95561        -0.71769
C         19.64028        14.21255        -0.56400
C         20.84820        16.32437        -0.51639
C         19.68207        17.02740        -0.14916
C         20.90667        19.19716        -0.07816
C         19.70508        18.46883         0.01145
C         20.91546        20.58262        -0.01362
C         19.71752        21.31549         0.09829
C         20.89230        23.49894         0.08325
C         19.72350        22.76066         0.06941
C         20.88798        24.90989        -0.00103
C         19.70356        25.64796         0.03258
C         20.90203        27.83554        -0.16994
C         19.71260        27.10017         0.02593
C         20.90270        29.22169        -0.16958
C         19.71264        29.95477         0.02398
C         20.90696        32.15927         0.01654
C         19.70884        31.40695         0.06906
C         20.89387        33.54000         0.09414
C         19.67990        34.25376         0.25085
C         20.81729        36.47761         0.36506
C         19.65727        35.72260         0.28882
C         20.78595        37.89571         0.27650
C         19.60393        38.56430         0.07570
O         10.45937        22.98240        -0.50202
O          8.75469        19.91008         2.88795
O          4.39464        14.94889        -0.98053
O          4.68736        17.64478         2.65156
O         10.83142        37.26289         1.18353
O          8.09766        33.56765        -1.76676
O          6.86710        23.25829         2.79736
O          8.66657        28.20543        -1.17127
O         15.08139        17.67713         2.40483
O          2.67314        25.58883         1.93256
O          3.83543        19.13682        -0.51550
H          3.01096        19.46953        -0.92963
O          0.80932        23.72790         2.48346
H          1.44450        24.42194         2.78382
O         13.87235        14.57367         2.77301
H         14.55965        15.22385         3.04271
O          6.14807        10.87033        -1.98146
H          5.40624        11.46423        -2.22908
O         13.60824        24.88465         2.82151
H         14.35325        24.31570         3.11326
O          4.41757        31.57453        -2.67574
H          4.62631        30.62165        -2.78608
O          6.07300         8.11172        -2.32046
H          6.12574         9.09265        -2.47437
O         13.21230         2.93087        -2.53101
H         13.07993         3.68384        -3.14211
O         12.10264        30.01243         2.48743
H         12.69154        30.74591         2.79239
O          1.89897        14.40347        -1.29747
H          2.74524        14.48947        -1.79776
O         13.80535        11.73160         2.33335
H         13.84411        12.63410         2.73638
O          9.60465         9.65828         2.07965
H          9.63957        10.54681         2.49658
O         16.91672        34.19282         1.99797
H         17.64696        34.66819         2.44726
O         13.18014         7.00781        -2.16405
H         13.09716         6.27343        -2.80734
O          0.85756        20.96049         2.99492
H          0.75874        21.94333         3.06824
O         15.02355        27.18727         2.66648
H         14.32249        26.60836         3.05807
O         13.77204         7.08352         1.43614
H         13.73721         7.82203         2.07924
O         13.37665        36.17212        -2.00521
H         13.60409        35.24026        -2.21331
O         11.06223        14.57382         2.91049
H         11.97940        14.73529         3.23882
O         11.02872         5.88913         1.52102
H         10.33086         6.42325         1.95711
O          5.68702        36.49229         0.94035
H          6.40306        37.05657         1.30318
O          7.27777        16.74511         3.18560
H          6.40556        17.12106         3.45929
O         13.57878        32.35653         2.28507
H         14.41391        32.83596         2.48250
O          2.56707        22.80336        -0.59849
H          3.38667        22.30777        -0.81231
O          3.60865         2.23968        -0.89979
H          3.60997         2.24318         0.07902
O          6.29862         6.37539         0.91055
H          6.33346         5.43175         1.17439
O         16.30448        33.50272        -1.53217
H         15.67496        32.89674        -1.97535
O          7.36020         5.83618        -2.59658
H          7.05773         6.74745        -2.83510
O         18.25969        23.42972        -1.66772
H         19.04226        23.87758        -2.05450
O          5.80997        32.14810         1.56403
H          5.67077        31.25683         1.95046
H          1.15123         2.50883        -0.90790
H         -0.93440         3.64207        -0.10360
H         -0.92040         6.04966         0.41165
H         -0.90377         7.92546         0.68614
H         -0.90324        10.32802         0.98136
H         -0.88605        12.18048         1.20859
H         -0.91003        14.57282         1.55472
H         -1.01028        16.52294         1.52291
H         -0.93699        18.94101         1.90610
H         -0.79321        20.61817         0.41056
H         -0.90306        23.01431         0.02971
H         -0.57515        24.59678        -1.11954
H         -0.44361        26.87591        -2.00176
H         -0.60844        28.87741        -2.18261
H         -0.61873        31.28459        -2.59543
H         -0.58556        33.17913        -2.93875
H         -0.60275        35.62109        -3.19960
H          0.49605        37.83016        -2.99231
H          3.46083         3.54674        -2.47549
H          2.49232        39.18633        -2.44993
H          5.99237         2.50432        -1.06547
H          4.87809        39.29372        -1.89976
H          8.45942         2.42550        -0.69912
H          7.31239        39.35715        -1.46479
H         10.95458         2.42681        -0.83336
H          9.69440        39.46381        -1.01318
H         13.51160         2.55815        -0.53366
H         12.25353        39.61300        -0.43494
H         15.88047         2.47353        -1.50256
H         14.71672        39.59979        -0.33028
H         18.34743         2.47122        -1.74538
H         17.14505        39.60963        -0.24580
H         20.49222         3.72015        -1.85316
H         21.72665         5.86170        -1.79840
H         21.75666         8.30419        -1.55725
H         21.72575        10.19802        -1.53599
H         21.74082        12.60744        -1.27076
H         21.76397        14.45910        -1.00535
H         21.79638        16.85751        -0.66063
H         21.86517        18.67775        -0.20407
H         21.87793        21.10384        -0.09841
H         21.86677        23.00031         0.17816
H         21.85878        25.42146        -0.02478
H         21.85476        27.31346        -0.32960
H         21.85545        29.74379        -0.32842
H         21.87461        31.65023        -0.08528
H         21.84734        34.08163         0.03254
H         21.79398        35.98902         0.48375
H         21.73110        38.45247         0.34401
H         19.58924        39.65924        -0.02333
