         404
 CSIRO Nanostructure Databank - Neutral Graphene Oxide Data Set
C          1.73737         2.35925         2.84714
C          1.67126         3.75033         2.61362
C          2.95072         1.70406         2.84698
C          2.81892         4.48723         2.33278
C          1.46726         6.60044         1.92345
C          1.29005         7.64330         1.09853
C          2.81340         6.00889         2.26641
C          2.43699         8.28025         0.42404
C          1.11324        10.42697        -0.13066
C          1.09632        11.79058        -0.26738
C          2.38797         9.72366        -0.15042
C          2.29143        12.53724        -0.34403
C          1.41176        15.09430         1.52598
C          1.69584        15.82261         2.63590
C          2.46517        14.60450         0.66384
C          3.08570        16.16860         2.97130
C          3.36476        17.39742         3.74876
C          4.15224         2.42084         2.57569
C          4.07555         3.82161         2.28515
C          5.40593         1.77179         2.59447
C          5.28321         4.52733         1.94775
C          3.93716         6.55171         1.39843
C          3.76609         7.73987         0.72248
C          5.21271         5.87538         1.40819
C          4.86012         8.34754        -0.06282
C          3.65697        10.50798        -0.19298
C          3.61243        11.98106        -0.24473
C          4.85930         9.82701        -0.23007
C          4.80420        12.72526        -0.16755
C          3.79261        14.81401         0.86867
C          4.16259        15.66956         2.02005
C          4.83439        14.26670        -0.12736
C          5.27540        16.61762         1.76176
C          4.56003        18.03492         3.68909
C          5.59486        17.67470         2.73646
C          6.60099         2.47891         2.34169
C          6.51543         3.87484         2.01090
C          7.85085         1.80891         2.31596
C          7.74956         4.64920         1.76834
C          6.34196         6.42999         0.77274
C          6.16993         7.62923        -0.06614
C          7.65066         5.87916         0.95612
C          7.37185         8.35983        -0.57180
C          6.12242        10.52648        -0.39572
C          6.13957        12.00749        -0.03342
C          7.29054         9.84175        -0.67728
C          7.28898        12.79048        -0.62618
C          6.21465        14.82716         0.17354
C          6.34179        16.16290         0.73671
C          7.37763        14.16462        -0.28320
C          7.65087        16.79017         0.89114
C          6.76523        18.37947         2.59638
C          7.80897        17.95788         1.69066
C          9.07715         2.46992         2.03873
C          9.07976         3.94192         1.84528
C         10.26162         1.78025         1.91417
C         10.26351         4.57418         1.21786
C          8.81740         6.45631         0.42362
C          8.70603         7.67109        -0.43728
C         10.11948         5.88236         0.64312
C          9.94989         8.45429        -0.75960
C          8.48925        10.57718        -1.17039
C          8.44597        12.08522        -1.20479
C          9.84117         9.90644        -1.18227
C          9.74169        12.84135        -1.39164
C          8.61042        14.92426        -0.38882
C          8.76063        16.18988         0.23531
C          9.77645        14.33790        -1.06077
C         10.01853        16.88896         0.23090
C          9.04214        18.62764         1.68353
C         10.14236        18.13340         0.93401
C         11.59767         2.46037         1.80336
C         11.49783         3.91159         1.28844
C         12.53062         1.63808         0.90762
C         12.67142         4.62682         0.87785
C         11.30735         6.59077         0.24539
C         11.24704         7.93572        -0.29829
C         12.55252         5.95756         0.38526
C         12.37969         8.68804        -0.57535
C         11.07309        10.72852        -1.13154
C         11.03517        12.13002        -1.32027
C         12.31570        10.05969        -1.02776
C         12.24740        12.86518        -1.41155
C         11.09037        14.99983        -0.95900
C         11.16147        16.33945        -0.42354
C         12.23588        14.30436        -1.34353
C         12.38013        17.05133        -0.41495
C         11.37879        18.81860         0.94662
C         12.50965        18.29630         0.28483
C         13.85528         1.94387         0.86745
C         13.99321         4.09713         0.93481
C         14.95574         1.49427         0.04983
C         15.06592         4.56478         0.12343
C         13.80552         6.68981         0.12421
C         13.71405         8.12039        -0.32190
C         15.01958         5.93643        -0.23857
C         14.87284         8.70984        -1.01104
C         13.53073        10.77823        -1.27017
C         13.50274        12.17788        -1.47601
C         14.78650        10.07746        -1.35101
C         14.75000        12.89145        -1.65929
C         13.49188        15.03281        -1.57538
C         13.54369        16.52545        -1.12278
C         14.76684        14.32066        -1.65235
C         14.86062        17.11226        -0.88435
C         13.75582        18.97994         0.28473
C         14.92642        18.40488        -0.26617
C         16.04708         2.26920        -0.30634
C         16.15076         3.72270        -0.30026
C         17.14568         1.47468        -0.98721
C         17.27607         4.37452        -0.91180
C         16.11106         6.56264        -0.86491
C         16.05765         7.97181        -1.20188
C         17.27655         5.78658        -1.15192
C         17.20222         8.62083        -1.75918
C         15.96968        10.75808        -1.74449
C         15.96163        12.19053        -1.84357
C         17.15400        10.01587        -1.97259
C         17.20434        12.90465        -2.03015
C         15.98711        15.03150        -1.65109
C         16.02453        16.43489        -1.29362
C         17.22305        14.33501        -1.86207
C         17.28389        17.10566        -1.21647
C         16.17208        19.07631        -0.24470
C         17.32782        18.46244        -0.75613
C         18.45435         2.20160        -1.11564
C         18.45887         3.62091        -1.24074
C         19.62728         1.48179        -1.23883
C         19.65058         4.27396        -1.68027
C         18.43744         6.44734        -1.69016
C         18.41729         7.85490        -1.97610
C         19.62913         5.70623        -1.91977
C         19.60344         8.50739        -2.37738
C         18.32433        10.74183        -2.50046
C         18.39324        12.21101        -2.30078
C         19.58153         9.94887        -2.72952
C         19.65744        12.90034        -2.38732
C         18.45597        15.03472        -1.89985
C         18.48647        16.43995        -1.59037
C         19.68380        14.35024        -2.19746
C         19.71361        17.15610        -1.61078
C         18.56664        19.16690        -0.83049
C         19.71271        18.55020        -1.28676
C         20.85314         2.13556        -1.56000
C         20.83154         3.52748        -1.85108
C         22.07226         1.42350        -1.58862
C         22.03657         4.09444        -2.55930
C         20.81043         6.37447        -2.31765
C         20.82895         7.78653        -2.44807
C         22.04977         5.61625        -2.58250
C         22.09737         8.49086        -2.41485
C         20.86583        10.71816        -2.77059
C         20.84523        12.17621        -2.53514
C         22.15233         9.96915        -2.56557
C         22.15070        12.85305        -2.65217
C         20.89143        15.07413        -2.25160
C         20.94240        16.48088        -1.94936
C         22.15499        14.37916        -2.56309
C         22.16507        17.19483        -1.94272
C         20.94422        19.38957        -1.50342
C         22.21276        18.58651        -1.63457
C         23.33083         2.05548        -1.80078
C         23.36578         3.47197        -2.14727
C         24.49884         1.35534        -1.49422
C         24.56666         4.16761        -2.17698
C         23.35407         6.36484        -2.38970
C         23.26116         7.80934        -2.14914
C         24.62078         5.62796        -2.14004
C         24.43727         8.51636        -1.62254
C         23.35746        10.70263        -2.09300
C         23.38716        12.14527        -2.23152
C         24.45499         9.99083        -1.66073
C         24.55234        12.86438        -1.98210
C         23.43584        15.04215        -2.25039
C         23.45607        16.54249        -2.39597
C         24.58926        14.31176        -2.10253
C         24.69951        17.17694        -1.81249
C         23.41407        19.25849        -1.49018
C         24.67762        18.57645        -1.51953
C         25.80743         1.91151        -1.78155
C         25.84110         3.40999        -2.15614
C         27.03882         1.31623        -1.27453
C         27.14523         4.14271        -1.98155
C         25.78729         6.32689        -1.90809
C         25.73533         7.75914        -1.49769
C         27.10911         5.64425        -1.95573
C         26.96976         8.56097        -1.35980
C         25.67079        10.67214        -1.18961
C         25.73622        12.18445        -1.41032
C         26.94733         9.92263        -1.13611
C         27.06506        12.81191        -1.43089
C         25.90311        15.01553        -2.04410
C         25.89862        16.46836        -1.74719
C         27.16814        14.24057        -1.74733
C         27.11880        17.12602        -1.41055
C         25.87282        19.24458        -1.24241
C         27.10716        18.54548        -1.20597
C         28.24491         2.02818        -1.16101
C         28.31758         3.44470        -1.40246
C         29.41563         1.34336        -0.71952
C         29.46920         4.17165        -1.00074
C         28.34699         6.37774        -1.52243
C         28.26149         7.84822        -1.28935
C         29.49705         5.60986        -0.97376
C         29.31927         8.51720        -0.48037
C         28.17316        10.66780        -0.88739
C         28.19975        12.10175        -1.00866
C         29.36134         9.98797        -0.56441
C         29.43346        12.79456        -0.71652
C         28.37283        14.95902        -1.29207
C         28.35855        16.41005        -1.27207
C         29.47724        14.24093        -0.83890
C         29.54340        17.10826        -1.01371
C         28.31676        19.22719        -0.94579
C         29.53986        18.53225        -0.86338
C         30.60494         2.02222        -0.43691
C         30.62047         3.46990        -0.51076
C         31.78373         1.30723        -0.08097
C         31.76137         4.18235        -0.08810
C         30.61326         6.29599        -0.48417
C         30.56213         7.74962        -0.17926
C         31.79773         5.60009        -0.10089
C         31.81551         8.51106         0.00085
C         30.56431        10.66456        -0.24180
C         30.56473        12.08547        -0.27799
C         31.78934         9.92522         0.02882
C         31.72308        12.81649         0.35122
C         30.72234        14.93081        -0.55811
C         30.85367        16.36399        -1.02661
C         31.82671        14.25464        -0.09327
C         31.97912        17.09818        -0.34429
C         30.74903        19.22405        -0.57867
C         31.95015        18.53538        -0.28375
C         32.96523         1.97111         0.28425
C         32.90870         3.43950         0.44663
C         34.16910         1.30616         0.55165
C         34.21528         4.20321         0.61972
C         33.01696         6.33640         0.15985
C         33.02777         7.78622         0.12589
C         34.22925         5.64957         0.34515
C         34.25509         8.49237         0.28531
C         33.01863        10.64075         0.23159
C         33.03340        12.06353         0.29118
C         34.24833         9.91957         0.35477
C         34.23338        12.76855         0.46633
C         33.08209        14.93877         0.13479
C         33.10662        16.39270         0.07489
C         34.23257        14.21544         0.43138
C         34.27567        17.10182         0.51701
C         33.10713        19.23346         0.12225
C         34.27866        18.53941         0.50047
C         35.42052         1.99213         0.67032
C         35.46885         3.44046         0.56620
C         36.59884         1.26897         0.85657
C         36.66540         4.14670         0.50591
C         35.48790         6.32943         0.35406
C         35.49927         7.77986         0.36230
C         36.68170         5.58072         0.44897
C         36.69683         8.49026         0.55624
C         35.46626        10.62745         0.60722
C         35.46716        12.05255         0.69051
C         36.69141         9.90558         0.75780
C         36.66987        12.72183         1.04494
C         35.49387        14.95124         0.63876
C         35.43485        16.39635         0.90478
C         36.74492        14.20942         1.04382
C         36.59579        17.06067         1.36418
C         35.47691        19.20872         0.82175
C         36.61864        18.50153         1.25212
C         37.90662         1.89164         0.68302
C         37.94716         3.41223         0.46558
C         39.12233         1.25321         1.21449
C         39.18133         4.12666         0.84452
C         37.98405         6.26475         0.40149
C         37.98935         7.78942         0.49471
C         39.20018         5.53640         0.83174
C         39.18606         8.45071         1.04615
C         37.89644        10.59277         1.09198
C         37.85760        12.00088         1.25404
C         39.12844         9.84303         1.31660
C         39.04717        12.75629         1.72145
C         37.75358        14.91795         1.87333
C         37.70160        16.34254         1.96147
C         38.81279        14.07845         2.38436
C         38.75274        17.16265         2.55282
C         37.81321        19.19711         1.53109
C         38.87422        18.54925         2.18869
C         40.27008         1.95346         1.38080
C         40.33539         3.39246         1.20283
C         41.52118         4.10190         1.48738
C         40.38079         6.24039         1.16436
C         40.36575         7.70378         1.29083
C         41.54109         5.48773         1.46587
C         41.50329         8.38996         1.76249
C         40.28124        10.48805         1.82495
C         40.26904        11.94625         2.11083
C         41.45880         9.75346         2.02170
C         41.08850        12.43698         3.22780
C         39.68363        14.42102         3.41252
C         39.67132        16.72057         3.53549
C         40.78941        13.61454         3.83814
C         40.75260        17.48023         3.97481
C         40.00670        19.31202         2.60465
C         40.94753        18.77721         3.46107
O          9.98104         8.84314        -2.17230
O         36.57588        14.68904        -0.34143
O         18.70485        10.28060        -3.85553
O         25.92410         2.40673        -3.18199
O         24.84909         7.95010        -0.31462
O          8.17094        11.28108        -2.42052
O         29.53006         8.00278         0.87333
O         27.38960         4.92690        -3.20653
O         13.33179        16.13329        -2.51398
O          7.92082         7.55098        -1.66665
O         33.35184         3.87188         1.77452
O         14.01738         7.79785         1.08690
O         25.44532        11.59057        -0.07788
O          2.06016        13.91025        -0.49637
O         40.24204        12.75269         0.87490
O         38.09209         2.49859        -0.65825
O          4.01688        15.06628         3.33011
O          5.24011        17.08448         0.39460
O         28.76822         7.34221        -2.57287
O         21.72727        10.36908        -3.91662
O          9.58568        13.83189        -2.43664
O          8.59323         4.73668         2.98103
O         14.26648         2.99841         1.74592
O         39.42593        15.52206         4.23325
O         26.78325        14.61468        -3.14764
O         38.20234         7.09702        -0.78663
O         22.80382         6.07546        -3.74355
O         22.23086        13.68517        -3.85481
O          2.31195         8.53394        -1.00715
O          5.22164         7.48823        -1.19234
O         16.71107         1.10473        -2.31583
H         16.69443         1.91440        -2.86684
O         23.52271        16.80050        -3.84185
H         24.27490        16.28437        -4.20383
O         21.07094        20.38884        -0.48257
H         21.19680        19.93527         0.37570
O         31.24018        16.28527        -2.44909
H         32.09876        15.81276        -2.49477
O         12.10997         2.49444         3.16037
H         13.05072         2.78645         3.10761
O         21.86736         3.66522        -3.94619
H         22.42658         4.26666        -4.49134
O         31.40325        12.87082         1.79468
H         30.50181        13.24810         1.88083
O          4.50146        14.75290        -1.44968
H          3.56608        14.50514        -1.62829
O          6.41796        11.98117         1.44341
H          5.62540        11.60765         1.88642
O          3.10725         6.46004         3.63116
H          3.91279         5.98767         3.93154
H          0.81082         1.80641         3.05526
H          0.69008         4.24041         2.66659
H          3.00565         0.62677         3.05871
H          0.58794         6.17652         2.42987
H          0.27686         8.01746         0.89158
H          0.18035         9.84950        -0.12661
H          0.14472        12.33552        -0.32403
H          0.37185        14.88038         1.24416
H          0.88524        16.26448         3.23447
H          2.57564        17.76893         4.41948
H          5.45225         0.69526         2.81516
H          4.74327        18.91347         4.32559
H          7.87092         0.72445         2.50027
H          6.97117        19.23076         3.26249
H         10.26430         0.68843         2.05376
H          9.16981        19.53788         2.28716
H         12.11338         0.85907         0.25475
H         11.46255        19.76649         1.49753
H         14.96671         0.43720        -0.26013
H         13.82021        19.96772         0.76356
H         17.30152         0.51366        -0.43442
H         16.23264        20.09571         0.16332
H         19.61788         0.38879        -1.11672
H         18.60215        20.22881        -0.54677
H         22.06285         0.35137        -1.34226
H         20.80021        19.95250        -2.46914
H         24.43135         0.36771        -1.01547
H         23.39695        20.33365        -1.25938
H         27.00350         0.27695        -0.91617
H         25.86174        20.32752        -1.05052
H         29.37627         0.25034        -0.60478
H         28.30110        20.31709        -0.79882
H         31.77135         0.20801        -0.12446
H         30.72825        20.32085        -0.49799
H         34.18387         0.20609         0.53338
H         33.09843        20.33294         0.14166
H         36.54752         0.19788         1.10341
H         35.52359        20.30482         0.74631
H         39.07727         0.18550         1.47639
H         37.87662        20.27592         1.32796
H         41.17402         1.44599         1.74934
H         42.43384         3.54575         1.74486
H         42.48491         5.99619         1.70111
H         42.44612         7.85717         1.93766
H         42.36776        10.25870         2.37537
H         41.87719        11.79263         3.64104
H         41.37094        13.95972         4.70370
H         41.42015        17.07641         4.74653
H         40.09057        20.35363         2.26459
H         41.80640        19.37578         3.79327
