         429
 CSIRO Nanostructure Databank - Neutral Graphene Oxide Data Set
C          1.26209         3.29371        -0.73757
C          0.06048         3.98221        -0.86157
C          1.21786         6.13571        -0.70615
C          0.02804         5.37945        -0.85045
C          1.21016         7.56917        -0.64781
C          0.03157         8.33997        -0.96384
C          1.06168        10.32519         0.08640
C         -0.01984         9.67542        -0.73084
C          1.08937        11.83118         0.06389
C         -0.05457        12.63177        -0.03520
C          1.16558        14.65032         0.58908
C         -0.00380        14.03111         0.10959
C          1.31671        16.14455         0.73643
C          0.18406        16.89153         1.32786
C          1.39699        19.03975         1.20088
C          0.21318        18.24081         1.45407
C          1.36956        20.42173         1.20640
C          0.15768        21.18811         1.32322
C          1.37522        23.32356         1.22951
C          0.16868        22.55397         1.40188
C          1.34505        24.83430         1.44652
C          0.05520        25.56950         1.18034
C          1.22573        27.65486         0.40442
C          0.01692        26.86961         0.85667
C          1.21281        29.15887         0.66341
C          0.01605        29.88355         0.55739
C          1.20666        32.00991         0.54240
C          0.00552        31.27849         0.54725
C          1.21684        33.48709         0.46345
C          0.01119        34.24454         0.16519
C          1.15059        36.41828         0.47806
C         -0.02310        35.60425         0.12642
C          1.23448        37.87229         0.16851
C          3.71945         3.32313        -0.50075
C          2.48588         4.00520        -0.60301
C          3.68583         6.16211        -0.46645
C          2.46026         5.43835        -0.57775
C          3.67439         7.58823        -0.38940
C          2.42534         8.28384        -0.38720
C          3.62760        10.42162        -0.10433
C          2.41117         9.68480        -0.16189
C          3.60844        11.82953         0.12384
C          2.33230        12.46098         0.35180
C          4.14858        14.84122         0.58659
C          2.24450        13.79204         0.81821
C          3.95885        16.25197         0.43158
C          2.63138        16.89239         0.65665
C          3.84136        19.11231         0.48300
C          2.73646        18.31819         1.18825
C          3.81487        20.47551         0.58862
C          2.68093        21.17276         1.31015
C          3.77811        23.40038         0.67161
C          2.57533        22.66338         1.03918
C          3.73544        24.84521         0.71370
C          2.53907        25.54856         0.85986
C          3.72991        27.69633         0.69075
C          2.52485        26.96160         0.74297
C          3.67885        29.12509         1.16944
C          2.42982        29.87990         0.73609
C          3.71753        32.02938         0.41321
C          2.42275        31.28492         0.65230
C          3.67096        33.46498         0.88025
C          2.40097        34.17606         0.62382
C          3.73039        36.31511         0.32908
C          2.43428        35.64885         0.67133
C          3.72414        37.85981         0.11149
C          2.40387        38.54235         0.14739
C          6.18280         3.34513        -0.34504
C          4.94287         4.02462        -0.42205
C          6.14808         6.19174        -0.39897
C          4.92233         5.46286        -0.42122
C          6.13922         7.61807        -0.39356
C          4.89861         8.32439        -0.34163
C          6.13757        10.47758        -0.36073
C          4.88938         9.74443        -0.28030
C          6.13153        11.89157        -0.38555
C          4.79230        12.59853        -0.47438
C          6.00807        14.79270        -1.00839
C          4.94908        14.07971        -0.20902
C          6.14382        16.26626        -0.63620
C          5.00189        16.97989        -0.12678
C          6.12709        19.10272        -0.54252
C          4.99342        18.42228        -0.09914
C          6.17800        20.56957        -0.38972
C          4.99241        21.27602         0.21210
C          5.96752        23.49138        -0.53657
C          4.86862        22.74245         0.11111
C          6.17039        24.88312        -0.06532
C          4.98208        25.59278         0.57777
C          6.20176        27.77269         0.38108
C          4.96926        27.05215         0.58408
C          6.24407        29.17988         0.58170
C          5.01238        29.87624         1.03091
C          6.24419        32.08866         0.54978
C          4.99220        31.36224         0.87799
C          6.24874        33.49916         0.63512
C          4.97568        34.21686         0.94103
C          6.22072        36.42609         0.88055
C          4.95978        35.65408         0.65972
C          6.19595        37.87987         0.45871
C          4.96935        38.55957         0.34334
C          8.65147         3.38910        -0.22447
C          7.40574         4.05198        -0.31951
C          8.60436         6.21793        -0.46887
C          7.38366         5.48979        -0.38362
C          8.58030         7.62812        -0.60152
C          7.36963         8.34182        -0.49306
C          8.61917        10.49748        -0.67748
C          7.37197         9.77445        -0.50025
C          8.60179        11.93557        -0.72495
C          7.34244        12.63416        -0.63010
C          8.50451        14.71777        -1.34288
C          7.30633        14.02464        -0.87892
C          8.47487        16.24695        -1.43970
C          7.28588        16.96766        -0.96848
C          8.54147        19.09386        -1.20163
C          7.33872        18.40942        -0.92428
C          8.47716        20.55842        -1.46839
C          7.20492        21.29768        -1.19746
C          8.46439        23.51351        -1.22286
C          7.17873        22.79903        -1.17711
C          8.46799        24.98500        -1.18630
C          7.21310        25.73800        -0.66408
C          8.53684        27.82372        -0.43200
C          7.33653        27.11890        -0.18081
C          8.58845        29.22670        -0.18931
C          7.40498        29.91200         0.24188
C          8.64155        32.07048         0.08117
C          7.42505        31.36009         0.30430
C          8.65780        33.48912         0.21194
C          7.45221        34.21667         0.47049
C          8.65239        36.37293         0.41336
C          7.47864        35.67536         0.51362
C          8.67455        37.83958         0.39037
C          7.42434        38.54470         0.41163
C         11.10461         3.44483         0.01963
C          9.87136         4.10798        -0.19170
C         11.07067         6.28930        -0.29586
C          9.85317         5.53210        -0.36884
C         11.07966         7.68663        -0.50469
C          9.82889         8.32108        -1.06358
C         11.10036        10.50443        -1.28501
C          9.81553         9.81000        -0.89176
C         11.09798        11.99777        -1.05154
C          9.83341        12.65083        -0.95423
C         10.99020        14.75647        -1.49000
C          9.80466        14.04268        -1.21600
C         10.82525        16.14516        -1.87248
C          9.75737        16.95976        -1.51583
C         11.00786        19.16283        -1.22515
C          9.81198        18.41199        -1.38156
C         10.84030        20.61031        -0.76058
C          9.77905        21.33288        -1.60633
C         10.90154        23.52553        -1.09722
C          9.67489        22.81928        -1.23485
C         10.93502        24.97024        -1.04699
C          9.72680        25.71298        -1.03609
C         10.98124        27.81828        -0.84211
C          9.73943        27.11388        -0.81382
C         11.01632        29.23965        -0.70882
C          9.81243        29.94143        -0.39830
C         11.07650        32.05895        -0.36475
C          9.84527        31.35879        -0.23029
C         11.08627        33.47090        -0.10183
C          9.91095        34.17391         0.15168
C         11.11368        36.36240        -0.08495
C          9.95618        35.63238         0.56814
C         11.12348        37.85849        -0.09706
C          9.86759        38.53636         0.25452
C         13.53893         3.51352         0.31798
C         12.31916         4.16350         0.15992
C         13.41636         6.38519         0.34061
C         12.27890         5.62604         0.06949
C         13.44628         7.78866         0.12698
C         12.26662         8.44405        -0.34853
C         13.52640        10.54836        -0.60336
C         12.33065         9.83998        -0.68964
C         13.60087        11.90671        -1.32721
C         12.30768        12.72621        -1.14771
C         13.55416        14.93741        -1.25131
C         12.27901        14.13545        -1.33405
C         13.50270        16.40356        -0.89699
C         12.61543        17.24496        -1.52833
C         13.40460        19.30489        -0.53857
C         12.33364        18.60713        -1.12823
C         13.34781        20.72158        -0.32352
C         12.12497        21.40522        -0.66907
C         13.30942        23.57351        -0.49767
C         12.10182        22.78277        -0.81866
C         13.42478        24.89540        -1.21179
C         12.16156        25.68403        -1.03281
C         13.46084        27.78986        -1.11662
C         12.19926        27.08532        -0.99529
C         13.46434        29.19110        -1.13213
C         12.25951        29.94339        -0.87499
C         13.52297        32.10287        -0.81421
C         12.28358        31.36048        -0.70204
C         13.59191        33.45787        -0.54418
C         12.39126        34.16571        -0.07385
C         13.62096        36.38644        -0.61222
C         12.42524        35.65518        -0.02409
C         13.63026        37.83239        -0.14241
C         12.43689        38.51909        -0.01345
C         15.98581         3.60014         0.98661
C         14.81799         4.30454         0.33409
C         15.80389         6.49628         1.09295
C         14.56341         5.66590         0.98690
C         15.83338         7.85765         0.82413
C         14.65256         8.54036         0.30700
C         15.93046        10.64735         0.11519
C         14.69917         9.90262        -0.06949
C         15.96978        12.04466        -0.14528
C         14.98644        12.68026        -1.11952
C         15.95231        14.91167        -0.22164
C         14.85395        14.21441        -0.96256
C         15.76126        16.29542         0.26315
C         14.70474        17.09563        -0.40240
C         15.76174        19.32941         0.40778
C         14.68119        18.60890        -0.29421
C         15.74411        20.72179         0.36444
C         14.53493        21.40949        -0.01764
C         15.84779        23.57757        -0.18461
C         14.55215        22.87625        -0.04846
C         15.87617        24.90177        -0.59471
C         14.68759        25.66084        -0.91477
C         15.98363        27.73007        -1.55990
C         14.70263        27.03263        -1.12178
C         16.02095        29.20611        -1.26652
C         14.73792        29.90903        -1.39168
C         16.06177        32.06315        -0.95343
C         14.76093        31.41800        -1.23650
C         16.04530        33.45265        -0.61192
C         14.84706        34.18222        -0.53899
C         16.08701        36.28616        -0.09790
C         14.88718        35.60643        -0.35083
C         16.08972        37.72931         0.09948
C         14.88982        38.45557         0.09030
C         18.24092         3.66621         1.97632
C         17.00313         4.30261         1.56253
C         18.25828         6.55181         1.78363
C         16.93220         5.78266         1.67938
C         18.27213         7.93492         1.29530
C         17.07725         8.58959         0.93652
C         18.32800        10.69789         0.71696
C         17.09693         9.98379         0.59299
C         18.31962        12.11567         0.59282
C         17.12047        12.78560         0.19283
C         18.24034        14.98079         0.70764
C         17.08242        14.23871         0.21356
C         18.19450        16.38298         0.93929
C         16.87857        17.05203         0.95817
C         18.10584        19.30371         1.37902
C         16.76053        18.56555         1.26227
C         18.15287        20.82665         1.11848
C         16.94527        21.50757         0.61392
C         18.30622        23.54274         0.29681
C         17.03823        22.84941         0.22435
C         18.32792        25.00162         0.07099
C         17.18355        25.58892        -0.68598
C         18.50468        27.79091        -0.93518
C         17.25788        27.00372        -1.14653
C         18.49341        29.16989        -1.19682
C         17.23632        29.90139        -1.24290
C         18.56207        32.11140        -1.15703
C         17.25316        31.34061        -1.08041
C         18.56711        33.35457        -0.28601
C         17.28350        34.10584        -0.16286
C         18.54164        36.22213         0.21495
C         17.31795        35.56516         0.01175
C         18.53258        37.65477         0.41739
C         17.32875        38.36666         0.37053
C         19.41615         4.35920         2.07126
C         20.69830         6.43841         1.58111
C         19.49912         5.77166         1.81241
C         20.72032         7.82267         1.33141
C         19.54343         8.57940         1.18649
C         20.74554        10.75638         1.05387
C         19.55551        10.01206         0.97126
C         20.72763        12.14298         0.98048
C         19.52570        12.84843         0.79012
C         20.64892        15.04194         1.10772
C         19.48080        14.29782         0.84881
C         20.61068        16.41962         1.21383
C         19.38812        17.12219         1.14656
C         20.55631        19.30807         1.30409
C         19.37696        18.57475         1.28351
C         20.60326        20.71259         1.15509
C         19.46568        21.46934         0.91929
C         20.75813        23.58378         0.44801
C         19.49998        22.87557         0.57901
C         20.84589        24.90049         0.12712
C         19.65057        25.74530         0.00151
C         20.94528        27.79736        -0.73194
C         19.70284        27.09949        -0.61445
C         21.00749        29.08729        -1.16399
C         19.78670        29.89136        -1.49963
C         20.94646        31.92553        -0.51755
C         19.81371        31.29689        -0.93442
C         20.99055        33.33525        -0.20471
C         19.84910        34.09216        -0.13342
C         20.97575        36.23397         0.43303
C         19.80736        35.51546         0.19475
C         20.95308        37.62704         0.68500
C         19.76975        38.32795         0.66711
O          5.11746        30.77829         2.20529
O         13.64181        23.56287         0.92025
O         15.27958        17.92766        -1.49087
O          6.21431        20.95794         1.02851
O          4.27899        33.73863         2.18070
O          6.10665        25.00998         1.37083
O         18.79077        25.76860         1.22090
O         18.04778        20.26183         2.48249
O          3.75998        36.91408        -1.03024
O         12.66015        34.92316         1.20976
O          1.70904        36.17754         1.82800
O          8.26496        15.41624        -2.65774
O         10.89455        36.99954        -1.37096
O         17.54987        25.88990        -2.09271
O          6.07653        23.33007        -1.98383
O          7.48248        20.80219        -2.54032
O         14.67202        30.80747        -2.56521
O         17.39432         6.32403         2.95240
O         14.56649        14.75614        -2.31565
O         17.85157        33.29133         0.97672
O          1.77461        16.78505        -0.52760
O         15.84673        16.33820         1.71964
O         11.86962        16.72651        -2.58169
O          3.33188        14.24606         1.55748
O          7.47167        25.59863        -2.07671
O          1.18487        27.57491        -1.07152
H          0.33973        27.97529        -1.36730
O         13.52017        24.54431        -2.63179
H         13.54126        25.37811        -3.14811
O         15.74282        12.52062        -2.36172
H         15.54904        13.31808        -2.91236
O         10.28341        20.57007         0.58875
H         10.99404        20.30395         1.20928
O         15.20470         4.55207        -1.05542
H         15.20733         3.69342        -1.52744
O          3.04944        21.07539         2.74443
H          2.34954        21.53705         3.25509
O         11.18765        10.33893        -2.74994
H         12.05432        10.74026        -3.02959
O         13.55700        11.55042        -2.73898
H         14.50127        11.51438        -3.04411
O         19.78344        30.09371        -2.97680
H         19.57669        29.22675        -3.38844
O         14.16340         5.36653         2.36117
H         14.20122         6.19808         2.87843
O         13.44521        36.39359        -2.05510
H         12.54779        36.77558        -2.22846
O          4.42978        12.48604        -1.90439
H          4.83804        13.25950        -2.38105
O          3.87530        32.07259        -1.04255
H          3.04391        32.41831        -1.43140
O          6.27400        36.51903         2.36234
H          6.37156        35.60947         2.71998
O          0.73800        10.00916         1.50249
H          0.71492         9.03043         1.57498
O         10.19439        21.28689        -2.98202
H          9.39209        21.41052        -3.53544
O          5.64635        14.79047        -2.43839
H          6.47464        15.05134        -2.92201
O         18.64643        32.60187        -2.53220
H         18.93190        31.83526        -3.08698
O         16.13468        18.62404         2.57223
H         16.48813        19.43175         3.01800
O          1.52853        24.96140         2.90429
H          2.47075        24.77675         3.10672
O          3.16086        18.21327         2.57446
H          3.29170        19.13676         2.90575
O         10.20917        35.64758         2.00564
H         11.10959        35.25749         2.14232
O          9.85792         8.05112        -2.51766
H         10.40193         8.77521        -2.92664
O          3.45914        28.93208         2.60375
H          3.86033        29.71200         3.05771
O         15.90194        27.64496        -3.02066
H         16.35358        26.80280        -3.26834
H          1.27743         2.19470        -0.75078
H         -0.87962         3.42261        -0.96767
H         -0.94009         5.89043        -0.93956
H         -0.81419         7.84101        -1.45862
H         -0.91265        10.25161        -1.01133
H         -1.02119        12.16845        -0.27741
H         -0.90413        14.62903        -0.09032
H         -0.72028        16.33260         1.60979
H         -0.68974        18.75111         1.82080
H         -0.80710        20.66328         1.35866
H         -0.78483        23.08338         1.53128
H         -0.88924        25.05881         1.42340
H         -0.96726        27.35554         0.75554
H         -0.94506        29.35267         0.49643
H         -0.96078        31.79853         0.50512
H         -0.90137        33.69111        -0.09788
H         -0.93554        36.11871        -0.21071
H          0.28606        38.42643         0.09100
H          3.72844         2.22301        -0.50861
H          2.40305        39.63847         0.04253
H          6.19342         2.24555        -0.32032
H          4.95557        39.65945         0.39317
H          8.67191         2.29314        -0.13328
H          7.43946        39.63251         0.24187
H         11.11660         2.34817         0.10514
H          9.85755        39.63655         0.27989
H         13.57938         2.41303         0.30297
H         12.45580        39.58319         0.26814
H         16.08820         2.51172         0.84343
H         14.91384        39.52979         0.32915
H         18.24061         2.57414         2.10879
H         17.34095        39.45354         0.54158
H         20.35004         3.81679         2.28194
H         21.64624         5.88231         1.61634
H         21.69811         8.30761         1.21047
H         21.70474        10.25067         1.22563
H         21.67814        12.67925         1.09449
H         21.61801        14.53938         1.21526
H         21.55128        16.95176         1.39991
H         21.52348        18.79003         1.33006
H         21.59604        21.18027         1.12043
H         21.69089        23.01275         0.55106
H         21.83587        25.33734        -0.06602
H         21.88050        27.27122        -0.49274
H         21.99006        29.55516        -1.31613
H         21.89433        31.37275        -0.44678
H         21.97895        33.78056        -0.02373
H         21.94848        35.72333         0.41961
H         21.90104        38.14940         0.87589
H         19.75991        39.41399         0.83821
