         429
 CSIRO Nanostructure Databank - Neutral Graphene Oxide Data Set
C          1.42061         1.98457        -0.86551
C          1.47392         3.38589        -1.14476
C          2.43714         1.15160        -0.43823
C          2.58446         4.21806        -1.01830
C          1.41299         6.38662        -1.43802
C          1.41474         7.76970        -1.44988
C          2.53572         5.67784        -0.96528
C          2.55466         8.50384        -1.04627
C          1.39409        10.67429        -1.33614
C          1.40660        12.07440        -1.44919
C          2.55227         9.94619        -1.10101
C          2.56703        12.83159        -1.20246
C          1.44282        15.00536        -1.77860
C          1.51257        16.38317        -2.13201
C          2.52513        14.28663        -1.28754
C          2.69706        17.09533        -2.07259
C          2.84719        18.47680        -2.48074
C          3.81749         1.53835        -0.50073
C          3.89893         3.65596        -0.90312
C          4.87949         1.23745         0.31973
C          4.94270         4.23658        -0.20961
C          3.67105         6.39670        -0.50315
C          3.70661         7.80195        -0.58007
C          4.75870         5.66371         0.25243
C          4.91055         8.54596        -0.18349
C          3.87350        10.66748        -1.09269
C          3.76762        12.15457        -0.82400
C          4.96087         9.94414        -0.33427
C          4.93783        12.85168        -0.42455
C          3.74683        15.01311        -0.93605
C          3.84351        16.46532        -1.40188
C          4.99669        14.28778        -0.62508
C          5.19857        16.98243        -1.70059
C          4.03820        19.13608        -2.43789
C          5.30977        18.42212        -2.20087
C          6.08888         2.04383         0.34747
C          6.10085         3.48710         0.18643
C          7.27163         1.40291         0.73327
C          7.25841         4.22756         0.58970
C          6.07473         6.39983         0.33595
C          6.06381         7.82906         0.26878
C          7.22497         5.67015         0.64443
C          7.27692         8.55516         0.56354
C          6.11278        10.69178         0.08426
C          6.07728        12.14014         0.05862
C          7.24974         9.99024         0.54561
C          7.20240        12.91125         0.58135
C          6.19126        14.99527        -0.55177
C          6.35290        16.34217        -1.05351
C          7.33132        14.39734         0.15454
C          7.57869        16.98401        -1.07294
C          6.56418        19.09800        -1.89090
C          7.67846        18.38932        -1.43745
C          8.49819         2.10145         0.84920
C          8.48469         3.53649         0.82763
C          9.71623         1.39715         0.97760
C          9.72478         4.24049         0.94736
C          8.40990         6.38269         1.25627
C          8.43696         7.85713         0.94474
C          9.73768         5.67558         1.03508
C          9.66608         8.57782         1.28047
C          8.44258        10.71847         1.02779
C          8.46697        12.22098         0.98680
C          9.73776        10.02463         1.06242
C          9.76773        12.90302         0.85225
C          8.65908        14.96773         0.01963
C          8.84524        16.19983        -0.83074
C          9.80691        14.28864         0.47620
C         10.00291        17.03688        -0.34205
C          8.91634        19.07595        -1.20766
C         10.04343        18.45696        -0.64006
C         10.94844         2.07480         0.99765
C         10.94482         3.51836         0.97174
C         12.18058         1.37083         1.04390
C         12.18877         4.21256         0.97236
C         10.94678         6.35144         1.11380
C         10.98033         7.81680         1.35652
C         12.19881         5.64646         1.02106
C         12.21216         8.57675         1.11612
C         10.93910        10.71232         1.05931
C         10.96731        12.16634         0.94630
C         12.19596         9.96896         1.02760
C         12.22509        12.84585         0.85976
C         11.06231        14.98407         0.52514
C         11.07064        16.40836         0.26081
C         12.25194        14.27270         0.79594
C         12.23884        17.20334         0.67569
C         11.22916        19.19541        -0.37829
C         12.36316        18.60460         0.22186
C         13.41521         2.04371         1.02424
C         13.41108         3.49038         0.96964
C         14.65347         1.34724         1.05343
C         14.63872         4.19175         0.90159
C         13.42334         6.34091         0.99860
C         13.50492         7.81885         1.31073
C         14.63808         5.62248         0.86711
C         14.70439         8.48248         0.69069
C         13.41377        10.69676         0.75676
C         13.44991        12.10169         0.74587
C         14.61560         9.92753         0.40423
C         14.71176        12.82855         0.59286
C         13.52497        14.96467         0.83830
C         13.52160        16.44079         0.99101
C         14.70988        14.27778         0.69177
C         14.77261        17.18555         0.91658
C         13.58572        19.27054         0.38179
C         14.79742        18.58182         0.73660
C         15.89324         2.02119         1.02085
C         15.87961         3.47667         0.93103
C         17.12779         1.33121         1.01224
C         17.07706         4.18160         0.82557
C         15.87031         6.31756         0.65349
C         15.87045         7.76483         0.48224
C         17.06505         5.58419         0.58145
C         17.10855         8.43367         0.09606
C         15.90854        10.69192         0.22351
C         15.91094        12.14811         0.44773
C         17.15764         9.89187         0.55642
C         17.23393        12.85942         0.26773
C         15.98763        15.06772         0.42673
C         16.00458        16.38899         1.20495
C         17.25555        14.30439         0.68780
C         17.29447        17.14164         1.01145
C         16.05276        19.26389         0.79744
C         17.29101        18.57262         0.92242
C         18.39068         1.99948         1.00098
C         18.39857         3.51218         1.11816
C         19.60471         1.34069         0.95679
C         19.51751         4.11778         0.29559
C         18.28446         6.24783         0.15469
C         18.23106         7.65738        -0.19160
C         19.47635         5.56947         0.04363
C         19.45869         8.21562        -0.71383
C         18.40530        10.71921         0.37466
C         18.38983        12.10092         0.97264
C         19.49199        10.35131        -0.36098
C         19.69365        12.82351         0.73350
C         18.44239        14.95316         0.91155
C         18.48841        16.41667         0.99254
C         19.71340        14.22447         0.85460
C         19.73992        17.09780         0.94957
C         18.53599        19.24570         0.89322
C         19.76267        18.53421         0.92392
C         20.91567         2.09958         1.02932
C         20.81668         3.39652         0.24484
C         22.16171         1.34066         0.65300
C         22.06453         4.15558        -0.03337
C         20.68525         6.17526        -0.62406
C         20.72140         7.69072        -0.55157
C         21.98813         5.50102        -0.32835
C         21.96143         8.47755        -0.50684
C         20.83673        10.77513        -0.06372
C         20.88761        12.10940         0.44132
C         21.99845         9.94647        -0.19533
C         22.13556        12.77054         0.53224
C         20.94359        14.92121         0.81217
C         20.97416        16.36836         0.88815
C         22.17074        14.18127         0.73677
C         22.19359        17.05095         0.88276
C         21.01554        19.20336         0.91332
C         22.23730        18.49095         0.94500
C         23.34151         2.02057         0.29923
C         23.30916         3.43714        -0.02655
C         24.59313         1.34368         0.24582
C         24.51042         4.10877        -0.36554
C         23.17103         6.27546        -0.74766
C         23.14990         7.75633        -0.56684
C         24.47886         5.54027        -0.76899
C         24.45405         8.36050        -0.21988
C         23.23355        10.58925         0.10043
C         23.32116        11.99801         0.38264
C         24.48762         9.81035         0.16005
C         24.55986        12.65603         0.63680
C         23.42584        14.82755         0.80101
C         23.48988        16.32340         0.63056
C         24.61834        14.05891         0.83922
C         24.61887        16.91437         1.44243
C         23.49223        19.15831         1.00291
C         24.68054        18.46338         1.47921
C         25.80629         2.01089        -0.08568
C         25.73132         3.42967        -0.36136
C         27.02053         1.31103        -0.22832
C         26.98124         4.18750        -0.52672
C         25.75074         6.30774        -0.79769
C         25.73069         7.73906        -0.65145
C         26.94061         5.61834        -0.88945
C         26.91582         8.47322        -0.63502
C         25.78871        10.50621         0.12687
C         25.80246        11.87172         0.64937
C         26.97012         9.85725        -0.20150
C         27.13219        12.61406         0.63216
C         25.90462        14.72680         1.02103
C         25.88988        16.12791         1.52773
C         27.10442        14.08335         0.79315
C         27.18502        16.85474         1.73580
C         26.01094        19.06190         1.52021
C         27.20887        18.34494         1.62000
C         28.24064         1.93086        -0.84779
C         28.25449         3.43411        -0.64832
C         29.52525         1.37075        -0.29793
C         29.48764         4.13271        -1.11837
C         28.15493         6.33212        -1.29581
C         28.14602         7.85323        -1.14324
C         29.46462         5.60478        -1.37924
C         29.43409         8.57218        -1.05678
C         28.23215        10.59767        -0.29577
C         28.27680        11.94515         0.01033
C         29.44703         9.91839        -0.76523
C         29.40483        12.84311        -0.44392
C         28.40438        14.73595         0.88819
C         28.46099        16.08914         1.51364
C         29.52869        14.10240         0.40829
C         29.73358        16.86558         1.45958
C         28.45489        19.01748         1.55685
C         29.71960        18.35698         1.51904
C         30.72104         2.12420        -0.28856
C         30.74885         3.50247        -0.70502
C         31.96996         1.51871         0.02798
C         31.94003         4.24929        -0.77173
C         30.72435         6.36507        -1.24070
C         30.66649         7.84561        -1.57945
C         31.91349         5.69577        -1.04342
C         31.93849         8.57361        -1.24350
C         30.68607        10.69084        -0.90488
C         30.70202        12.09282        -0.66691
C         31.89028         9.98588        -1.18597
C         31.89925        12.83970        -0.74495
C         30.85209        14.75600         0.45524
C         30.94937        16.19127         0.89457
C         31.97907        14.18228        -0.31060
C         32.02043        17.11848         0.35820
C         30.93990        19.00183         1.56281
C         32.22619        18.18783         1.56903
C         33.17795         2.21810        -0.14043
C         33.16575         3.59147        -0.51524
C         34.44140         1.55736         0.07041
C         34.45597         4.28646        -0.85361
C         33.17594         6.43903        -0.96379
C         33.16177         7.87706        -1.10339
C         34.38148         5.78579        -0.72549
C         34.40027         8.59219        -1.04018
C         33.11918        10.72883        -1.50797
C         33.11808        12.22328        -1.29369
C         34.43599         9.97216        -1.65463
C         34.40110        12.93373        -1.17321
C         33.17896        14.92479        -0.40476
C         33.22059        16.32791        -0.11803
C         34.40267        14.30071        -0.85827
C         34.36320        17.03166        -0.45149
C         33.50795        19.00316         1.60183
C         34.51334        18.93215         0.68375
C         35.64430         2.25068         0.04849
C         35.66663         3.66665        -0.21507
C         36.89543         1.58509         0.30909
C         36.81545         4.42317         0.00217
C         35.59374         6.52013        -0.48536
C         35.58905         7.95555        -0.67939
C         36.77575         5.85365        -0.12306
C         36.84629         8.68305        -0.64761
C         35.65101        10.78126        -1.25857
C         35.62917        12.20573        -1.27998
C         36.85142        10.10576        -0.97047
C         36.85480        12.92890        -1.25849
C         35.64160        15.03851        -0.86483
C         35.65977        16.44109        -0.60023
C         36.85645        14.36503        -1.14508
C         36.88855        17.13921        -0.35789
C         35.91212        19.21205         0.85175
C         36.96404        18.47448         0.28223
C         38.06764         2.29045         0.41832
C         38.06264         3.74713         0.35906
C         39.34181         1.60879         0.58463
C         39.22247         4.45253         0.57129
C         37.91801         6.68919         0.40984
C         38.02935         8.04005        -0.28441
C         39.23821         5.93192         0.50897
C         39.30189         8.70138        -0.39964
C         38.06580        10.83669        -0.91569
C         38.07028        12.20476        -1.18126
C         39.34179        10.21229        -0.42748
C         39.33145        12.90180        -1.47755
C         38.07076        15.10437        -1.10137
C         38.09701        16.42784        -0.61240
C         39.30978        14.41130        -1.52464
C         39.43712        16.92240        -0.09267
C         38.25747        19.04177         0.50269
C         39.46389        18.39065         0.24459
C         40.49287         2.28283         0.75944
C         40.54256         3.77891         0.90328
C         41.64362         4.38628         0.04651
C         40.53001         6.58730         0.09570
C         40.50911         8.01382        -0.33122
C         41.63991         5.68427        -0.29654
C         41.74353         8.69869        -0.58315
C         40.60610        10.82867        -1.00873
C         40.61637        12.17554        -1.35614
C         41.79045        10.02529        -0.94279
C         41.81170        12.94334        -1.64125
C         40.62204        15.13457        -1.53430
C         40.66637        16.49997        -0.89143
C         41.82259        14.30101        -1.73559
C         41.93651        17.12752        -0.47473
C         40.70431        19.00445         0.46697
C         41.92310        18.33294         0.17535
O         27.87908         3.91420         0.67184
O         15.16926        10.26213        -0.94915
O         23.73100         5.78097        -2.02601
O         40.53489        16.36785        -2.33658
O         19.90090         3.33852        -0.90373
O          3.57716        16.15270        -0.00826
O         24.28191        17.57357         2.63535
O         26.46585        16.28684         2.87064
O         32.90526        11.63925        -2.64619
O          5.44078        17.25070        -3.11083
O         26.63075        11.97467         1.85725
O         31.39142        15.14283         1.79086
O         39.17146        13.63297        -2.75519
O         12.63364        16.95186         2.05675
O          4.11612         2.43734        -1.55333
O         19.32059         9.42656        -1.38206
O         10.25995         8.17965         2.60201
O          6.91178        13.99278         1.50760
O         27.94855         7.20234        -2.46159
O          8.25037        11.51686         2.26154
O         40.14061         6.50924         1.53614
O         24.47690         8.75728         1.21181
O         29.31789        16.21298         2.70329
O         34.20881        18.41372        -0.59958
O         29.46906         4.62217        -2.50151
O         15.92298        16.00641         2.61293
H         15.78842        16.81890         3.14460
O          8.18270         6.30569         2.71778
H          8.86114         6.90005         3.12434
O         18.08459        12.13760         2.37907
H         18.83463        11.74996         2.87395
O         32.30840        17.46534         2.81229
H         31.44659        17.05021         3.03279
O         34.61296         9.71969        -3.08500
H         34.17991        10.47039        -3.55527
O         17.05588         9.72054         2.01512
H         17.83018         9.20351         2.32108
O         39.61022        16.21577         1.18565
H         38.94116        16.56191         1.81368
O         17.47525        12.87939        -1.17566
H         17.20814        12.01087        -1.54879
O         15.98702        15.37425        -0.99473
H         16.38254        14.59883        -1.45927
O         40.87889         4.04027         2.29525
H         40.79125         5.01741         2.41904
O         28.19061         1.68483        -2.29852
H         28.78225         2.32983        -2.74397
O         13.73250         7.88974         2.77141
H         12.88076         7.68307         3.21406
O         18.69911         3.85750         2.50348
H         17.99953         3.46865         3.06867
O         34.64480         4.04821        -2.30819
H         33.89427         4.47812        -2.77313
O         31.46837        17.83631        -0.76222
H         32.20042        18.37180        -1.14479
O          9.24087        15.70547        -2.17292
H          9.25193        16.48072        -2.77458
O         21.12742         2.50272         2.42745
H         21.16534         1.68896         2.97205
O         28.99806        13.34248        -1.77155
H         29.17144        12.63106        -2.42497
O         23.87414        16.56355        -0.77095
H         23.15232        16.22258        -1.34065
O          4.33378        10.60903        -2.51470
H          3.62565        11.01600        -3.05945
O         39.40029        10.58622         1.00604
H         40.17512        10.12443         1.39301
O         30.56052         7.89790        -3.04213
H         29.67155         7.52891        -3.27193
O          4.27240         5.61557         1.64084
H          5.03147         5.36496         2.21052
O         20.48062         5.88071        -2.06003
H         20.35704         4.90203        -2.12372
O         37.53371         7.01037         1.78545
H         38.36337         7.25957         2.25274
H          0.40244         1.56502        -0.83188
H          0.49236         3.86587        -1.28024
H          2.17325         0.17894         0.00346
H          0.53319         5.84182        -1.80617
H          0.52616         8.29386        -1.82498
H          0.42512        10.16446        -1.42420
H          0.45943        12.58243        -1.67142
H          0.49873        14.48654        -1.99632
H          0.61718        16.85572        -2.56169
H          1.93470        19.02505        -2.76072
H          4.81226         0.39643         1.02609
H          4.07950        20.21368        -2.65543
H          7.27054         0.31045         0.86258
H          6.61971        20.19278        -1.98650
H          9.69992         0.29746         1.00347
H          8.96461        20.14962        -1.44342
H         12.16348         0.27119         1.07932
H         11.26813        20.25562        -0.67031
H         14.64160         0.24761         1.09669
H         13.65398        20.33301         0.10466
H         17.11571         0.23018         1.00262
H         16.06578        20.35757         0.68187
H         19.62683         0.23941         0.92428
H         18.55394        20.34370         0.82877
H         22.22292         0.26796         0.89823
H         21.03372        20.30335         0.93180
H         24.62124         0.26488         0.46048
H         23.54287        20.24109         0.81424
H         27.03420         0.22844        -0.02966
H         26.07586        20.13932         1.30150
H         29.55809         0.31951         0.02588
H         28.44683        20.11817         1.55034
H         31.99446         0.46184         0.33164
H         30.98072        20.09990         1.62136
H         34.43902         0.48257         0.30440
H         33.76912        19.37278         2.60606
H         36.90237         0.48842         0.39762
H         36.19372        20.03453         1.52859
H         39.34126         0.50893         0.54021
H         38.29953        20.06692         0.90323
H         41.44156         1.73894         0.88193
H         42.48489         3.74320        -0.25483
H         42.45448         6.09649        -0.91087
H         42.68144         8.12847        -0.53304
H         42.76008        10.46748        -1.21131
H         42.76315        12.40543        -1.76284
H         42.76691        14.81710        -1.96078
H         42.88611        16.68203        -0.80262
H         40.73428        20.03718         0.84344
H         42.87227        18.82932         0.42295
