         300
 CSIRO Nanostructure Databank - Neutral Graphene Oxide Data Set
C         30.34951        31.75687        -0.42640
C         30.24323        32.94045        -0.76190
C         30.20425        36.09370        -0.54776
C         30.52160        37.10911         0.07732
C         30.49130        40.08587         1.27993
C         30.44112        41.29189         1.55256
C         32.56678        29.03534        -0.80189
C         31.64920        29.58047        -0.18494
C         32.77100        31.75987        -0.63883
C         31.54292        31.03405         0.12976
C         32.69397        33.23129        -1.04506
C         31.28187        33.85841        -1.27245
C         32.98316        36.29723        -0.98066
C         30.60862        35.17793        -1.57447
C         32.93029        37.30746         0.14902
C         31.63020        37.79500         0.73999
C         32.92174        40.01068         1.33471
C         31.63384        39.17227         1.33944
C         32.88810        41.50791         1.46440
C         31.50574        42.31374         1.28847
C         32.71468        44.08293         2.47602
C         31.66353        43.49334         2.17870
C         35.33690        27.37700        -0.49812
C         35.15845        28.77483        -0.90373
C         33.89600        29.53765        -1.13456
C         35.12583        31.79114        -1.55250
C         33.86428        31.05062        -1.04050
C         35.24219        33.11721        -0.70790
C         33.99227        33.99039        -0.93088
C         35.40940        36.15177        -0.87624
C         34.09478        35.34872        -0.88728
C         35.34098        37.42524        -0.05602
C         34.19628        38.06998         0.31930
C         35.38422        40.11625         1.01860
C         34.21271        39.41122         0.88772
C         35.43125        41.51936         1.61646
C         34.04794        42.16484         1.75282
C         35.12574        44.52882         0.43173
C         34.07293        43.49545         2.49279
C         35.20290        45.93384         0.90665
C         37.64847        27.29641         0.29955
C         36.37816        26.77202        -0.22408
C         37.59396        28.83366         0.15394
C         36.32897        29.63446        -0.28949
C         37.80887        31.64216        -0.92985
C         36.58222        30.79776        -1.27249
C         37.83732        33.13563        -0.86194
C         36.52267        33.91253        -1.08559
C         37.89564        35.98017        -0.56455
C         36.56222        35.27850        -0.35039
C         37.81343        37.46480        -0.55350
C         36.64616        38.03703         0.20187
C         37.92005        40.25874         0.46705
C         36.68501        39.45999         0.73318
C         37.87053        41.73505         0.84051
C         36.46075        42.33060         0.60507
C         37.60115        44.63020         0.39183
C         36.48403        43.87164         0.59320
C         37.52785        46.19643         0.11630
C         36.26210        46.57998         0.83412
C         40.23641        24.72456        -0.61064
C         39.06316        25.34689        -0.36537
C         40.24276        27.41211         0.30060
C         38.94417        26.58851         0.19774
C         40.17738        28.91160         0.55740
C         38.89799        29.60417         0.22427
C         40.36884        31.56862        -0.70303
C         39.04367        30.81343        -0.63819
C         40.37183        32.99311        -0.06526
C         38.97872        33.83021        -0.08173
C         40.36256        36.00183        -0.82757
C         39.07235        35.28952        -0.58871
C         40.36620        37.53185        -0.75861
C         39.06562        38.27816        -0.58153
C         40.32049        40.43429        -0.30906
C         39.04701        39.66246        -0.01425
C         40.27898        41.85625         0.24094
C         38.99731        42.54364         0.24987
C         40.22439        44.80478         0.16739
C         38.95244        43.99795         0.38215
C         40.06886        46.23499        -0.35369
C         38.82954        46.90993         0.51949
C         40.05883        49.02139         0.29465
C         39.00396        48.36554         0.20323
C         42.60025        24.76977        -0.53146
C         41.38436        24.27043        -0.97940
C         42.62137        27.35812         1.01541
C         41.37648        26.77693         1.08095
C         42.70779        28.88133         0.92162
C         41.50803        29.56990         0.28291
C         42.94847        31.49857        -0.60263
C         41.60902        30.81165        -0.24638
C         42.86567        32.99092        -0.17710
C         41.58704        33.69974        -0.70510
C         42.91026        35.95695        -0.22537
C         41.66148        35.22774        -0.62415
C         42.90180        37.47285        -0.28572
C         41.59299        38.19836        -0.18796
C         42.85220        40.45556         0.42125
C         41.56180        39.65401         0.16506
C         42.80563        41.85654        -0.27991
C         41.56301        42.62523         0.18661
C         42.74214        44.82480        -0.50646
C         41.47896        44.06989        -0.21889
C         42.72634        46.33054        -0.56412
C         41.38949        47.05912        -0.43818
C         42.73250        49.03625         0.14938
C         41.37349        48.61187        -0.19341
C         43.57590        25.42195        -0.11701
C         45.15809        27.15154         0.92169
C         43.83638        26.42271         1.00654
C         45.15932        28.65536         1.07173
C         44.02463        29.29166         0.27259
C         45.38975        31.55839         0.48541
C         44.18244        30.79376         0.01308
C         45.42575        33.07812         0.35668
C         44.07976        33.75842         0.30520
C         45.40505        36.03792         0.25810
C         44.04808        35.28806         0.55478
C         45.28059        37.54045         0.73334
C         44.16572        38.22394        -0.05741
C         45.40462        40.46406        -0.05828
C         44.10881        39.72740        -0.04802
C         45.39883        41.94439         0.22185
C         44.05562        42.66056         0.10029
C         45.33109        44.88052        -0.29677
C         44.03853        44.14699        -0.10318
C         45.33642        46.25435        -0.31845
C         44.07539        47.04741        -0.39438
C         43.79498        48.41137         0.07191
C         47.48939        27.35630         1.30056
C         46.41822        26.65557         1.08762
C         47.71931        28.67381         1.51272
C         46.40943        29.41699         1.46245
C         47.82165        31.59858         1.12554
C         46.42399        30.96431         1.46758
C         47.80149        33.13428         1.52337
C         46.65860        33.86021         0.77173
C         47.79756        36.08705         1.35115
C         46.59931        35.32455         0.83694
C         47.88925        37.57225         0.95462
C         46.61146        38.32258         0.68080
C         47.95720        40.46265         0.25800
C         46.70872        39.64790        -0.11372
C         47.99730        41.95381        -0.04635
C         46.66769        42.69366        -0.04453
C         47.87384        44.70959        -1.17346
C         46.48859        44.00118        -0.81874
C         47.64783        46.15634        -1.09067
C         46.65627        46.75486        -0.65562
C         50.24506        28.79933         1.36832
C         48.98035        29.32961         1.99457
C         50.33853        31.57321         1.39825
C         49.04980        30.87696         1.70772
C         50.45697        33.06020         0.99918
C         49.16941        33.84670         1.34065
C         50.23058        35.92090         0.21990
C         49.13501        35.33195         1.10343
C         50.06536        37.33472        -0.26155
C         49.09792        38.13127         0.26803
C         50.49531        40.24376        -0.30933
C         49.20798        39.62712         0.19261
C         50.56906        41.76986        -0.59761
C         49.28707        42.61055        -0.47093
C         50.56762        44.45885        -1.36212
C         49.17991        43.97559        -1.16983
C         51.29643        29.32277         1.01689
C         52.24474        31.39786        -0.16302
C         51.89317        30.67379         1.06827
C         52.00828        32.47191        -0.71006
C         50.89716        33.45208        -0.45517
C         51.79736        35.67345        -1.60863
C         51.21173        34.95145        -0.46895
C         51.91235        36.89379        -1.77057
C         50.91842        37.95447        -1.40108
C         52.41956        40.08159        -1.60101
C         51.43551        39.32824        -1.04213
C         52.65000        41.34792        -1.74541
C         51.71604        42.30686        -1.43081
C         51.50662        43.70122        -1.67284
O         43.85818        43.55243         1.22974
O         34.21483        43.99483        -0.16154
O         51.56472        35.63261         0.74920
O         32.39182        39.33084         2.54513
O         32.02677        33.34098        -2.38000
O         45.40241        29.00537         2.46779
O         51.05748        41.17699         0.63727
O         47.24842        38.39394         1.96958
O         44.65593        40.24548        -1.29426
O         49.53155        34.78175         2.39663
O         48.85880        42.67946         0.90201
O         40.45324        36.84501        -2.01888
O         46.38271        33.45519        -0.68767
O         35.10311        31.99777        -2.87983
O         39.82604        44.50969         1.50650
O         43.48917        46.84011        -1.70609
O         39.43505        29.60283         1.58816
O         42.72352        35.53211        -1.60377
O         40.42096        40.59240        -1.70575
O         35.95768        41.37380         2.92399
O         41.06533        42.19356         1.46453
O         32.22490        36.34336        -1.96839
O         41.29349        48.06881        -1.50935
O         34.69198        29.03984        -2.22854
O         46.14893        42.53495         1.30714
O         49.82193        31.53019         2.76614
O         37.39347        28.14832         1.43781
O         38.18696        38.17829        -1.75773
O         48.39048        44.08000        -2.37248
O         36.93044        38.30135         1.60565
O         43.14566        33.11869         1.23714
O         43.79753        37.81431        -1.39562
O         41.95206        44.24673        -1.58444
O         45.37474        30.95626        -0.84666
O         48.71256        40.18547         1.44711
O         38.56028        33.90209         1.25342
O         40.35458        31.41235        -2.20790
O         41.31223        38.65595         1.19736
O         38.19261        32.48327        -2.09147
O         32.42342        36.78667         1.42715
O         42.76664        41.73799        -1.68924
H         41.90064        41.29987        -1.96377
O         35.06247        43.90441         3.05585
H         36.01404        42.26076         3.34956
O         39.06365        46.75599         1.89745
H         38.23427        46.92475         2.39145
O         49.81275        33.24101        -1.35561
H         50.15179        33.25611        -2.27470
O         38.19641        41.91620         2.24180
H         39.10374        41.58130         2.41532
O         47.48724        33.30044         2.91203
H         48.18337        32.83983         3.43270
O         39.63976        46.07704        -1.69600
H         39.88437        46.88689        -2.19991
O         51.53444        33.44737         1.85660
H         51.24801        34.21668         2.40483
O         48.05344        31.44542        -0.27697
H         47.43682        32.02050        -0.79528
O         36.88515        30.28031        -2.58036
H         36.24264        30.80761        -3.17660
O         36.05265        41.95007        -0.71482
H         35.21947        42.42992        -0.93316
O         43.08309        31.40662        -2.02499
H         44.04302        31.41067        -2.23858
O         35.79373        30.19791         0.91062
H         35.99068        29.58401         1.65407
O         40.74261        27.48326        -1.08113
H         41.01369        26.58139        -1.36586
O         37.27907        46.41502        -1.25095
H         36.40998        46.03794        -1.49768
O         46.94980        39.29155        -1.48936
H         46.07321        39.26979        -1.95155
O         45.65306        36.08525        -1.15982
H         45.85935        35.17184        -1.46923
O         30.05269        35.24055        -2.74977
H         30.43207        34.56405        -3.35461
O         43.78098        35.44576         1.95025
H         43.19636        34.70498         2.23536
O         44.84151        37.62287         2.08775
H         45.63387        37.51816         2.66832
O         35.62864        36.61185        -2.21219
H         36.00908        35.85474        -2.73184
O         49.99917        38.14086        -2.48991
H         50.49656        38.45576        -3.27341
O         31.47291        42.72327        -0.05335
H         30.90667        43.51574        -0.14857
O         43.83228        25.64866         2.22768
H         44.65742        25.11812         2.25859
O         40.66244        32.72334         1.29669
H         39.88801        33.10464         1.81510
O         36.30821        35.11872         1.05457
H         37.16477        34.73799         1.44316
O         45.98027        43.53562        -2.08797
H         45.96386        44.27905        -2.72762
O         36.43966        34.19113        -2.48977
H         36.04067        33.37844        -2.93805
O         46.04001        31.38105         2.77461
H         45.45037        30.67791         3.14494
O         39.38290        30.27304        -2.08419
H         38.52091        30.45906        -2.65417
O         31.68651        31.29463         1.49121
H         31.11600        30.69477         2.01273
O         44.04388        28.66064        -1.02101
H         44.76855        29.06198        -1.54823
O         49.03215        29.15335         3.39937
H         49.63972        29.83723         3.76324
O         42.99965        40.65290         1.83098
H         42.59877        39.88307         2.29287
O         47.52897        36.10569         2.77828
H         47.57421        35.17095         3.10886
O         52.80222        30.85510         2.07404
H         52.52358        30.37278         2.87666
O         41.18695        25.55528         1.59803
H         42.03726        25.24696         2.00230
O         35.25382        32.74597         0.66461
H         35.49725        33.55534         1.18943
O         42.74943        29.40685         2.27432
H         41.87862        29.25984         2.70045
O         41.45582        33.43464        -2.10718
H         42.03971        34.05305        -2.60150
