         334
 CSIRO Nanostructure Databank - Neutral Graphene Oxide Data Set
C         30.41424        57.13368         0.95509
C         30.44545        58.51899         0.87596
C         29.21737        59.24454         0.68488
C         30.45210        61.30892         0.45839
C         29.21921        60.60462         0.52507
C         32.80180        52.83109         0.64440
C         32.81547        54.22944         0.89448
C         31.63042        54.92793         1.15247
C         32.91949        57.14918         1.43726
C         31.59989        56.38384         1.33607
C         32.94573        58.58390         1.06336
C         31.70273        59.24703         0.88561
C         32.92888        61.38097         0.27677
C         31.65823        60.65167         0.60956
C         35.24145        48.60815        -0.03427
C         35.19977        50.02742        -0.06414
C         33.99864        50.72226         0.18396
C         35.20248        52.86931         0.10821
C         33.98126        52.13111         0.31134
C         35.20719        54.28572         0.35603
C         34.07623        54.94083         0.80054
C         35.39696        57.10422         0.93380
C         34.20616        56.31967         1.42376
C         35.39849        58.53673         1.13976
C         34.20028        59.27788         1.03008
C         35.38233        61.41461         0.16676
C         34.20394        60.82462         0.93459
C         37.71014        44.35614         0.20531
C         37.69934        45.76401         0.01855
C         36.49605        46.49076         0.02774
C         37.67399        48.64387        -0.35648
C         36.45302        47.90615        -0.12699
C         37.63265        50.04234        -0.50160
C         36.41562        50.76645        -0.29907
C         37.65309        52.93220        -0.29802
C         36.39637        52.19163        -0.24271
C         37.69943        54.26041         0.00914
C         36.43621        55.06552        -0.03935
C         37.81830        57.14088         0.44049
C         36.53919        56.45536         0.52941
C         37.86678        58.56600         0.74052
C         36.70013        59.14267         1.21758
C         37.92911        61.56342         0.03511
C         36.65861        61.22741         0.60135
C         40.23347        40.04619         0.17528
C         40.20017        41.47480         0.12706
C         38.95774        42.19811         0.14359
C         40.12392        44.33341        -0.27582
C         38.89798        43.59753         0.09559
C         40.15911        45.80195        -0.13565
C         38.95492        46.49171        -0.10919
C         40.13793        48.62887        -0.34892
C         38.93665        47.93917        -0.29306
C         40.18856        50.03998        -0.73967
C         38.86392        50.76582        -0.87713
C         40.17486        52.96464        -0.70223
C         38.84255        52.28352        -0.96871
C         40.17976        54.30273        -0.39441
C         39.00865        54.92538         0.33672
C         40.29351        57.12411         0.63536
C         38.99506        56.43428         0.29286
C         40.29242        58.62021         0.36380
C         39.09718        59.32906         0.50349
C         40.32605        61.40230        -0.07547
C         39.08374        60.76990         0.19939
C         42.77322        35.79302        -0.11895
C         42.74161        37.21415         0.01355
C         41.51366        37.90904         0.01206
C         42.69795        40.02519         0.26070
C         41.45747        39.32134         0.12767
C         42.68106        41.49798         0.57311
C         41.42701        42.18226         0.08682
C         42.74343        44.37403        -0.47242
C         41.44110        43.57607        -0.34804
C         42.63978        45.83642        -0.03270
C         41.43635        46.48910        -0.01549
C         42.63595        48.77849         0.21015
C         41.37989        47.97175         0.10162
C         42.66724        50.16729        -0.32210
C         41.44952        50.81738        -0.63035
C         42.66376        52.91564        -0.86250
C         41.42834        52.22352        -0.83200
C         42.68790        54.38137        -0.92080
C         41.38445        55.12575        -0.55924
C         42.80930        57.10658         0.24380
C         41.48320        56.44854         0.02510
C         42.76555        58.59573        -0.00018
C         41.54987        59.28227         0.10406
C         42.78141        61.41936        -0.16023
C         41.55104        60.72454        -0.05094
C         45.26123        32.98171        -0.18307
C         44.03866        33.67852        -0.30352
C         45.23651        35.85490        -0.29705
C         43.97985        35.08478        -0.22187
C         45.24107        37.26121         0.13861
C         43.97314        37.93636         0.20820
C         45.13753        40.08985         0.76496
C         43.91344        39.34595         0.37692
C         45.20536        41.53834         0.56861
C         43.94774        42.18755         0.02817
C         45.22362        44.40073         0.04441
C         43.87627        43.69320         0.32099
C         45.14617        45.82310         0.62949
C         43.95832        46.60196        -0.03639
C         45.15911        48.70341        -0.16200
C         43.95866        48.06161         0.49647
C         45.24195        50.19379        -0.19716
C         43.89322        50.84663        -0.46373
C         45.16852        52.91447        -0.91707
C         43.89180        52.21508        -0.78695
C         45.18201        54.33632        -0.83776
C         43.97101        55.06907        -0.68495
C         45.22106        57.14661        -0.47381
C         43.99298        56.42893        -0.39520
C         45.21895        58.58882        -0.33716
C         44.00788        59.28731        -0.17207
C         45.24504        61.43410        -0.20718
C         44.01147        60.74068        -0.18277
C         46.47423        33.62152        -0.03098
C         47.76424        35.81770         0.21433
C         46.59165        35.06429        -0.20346
C         47.73052        37.21537         0.32502
C         46.45639        37.91253         0.36050
C         47.70903        40.09668         0.69734
C         46.46922        39.31947         0.79476
C         47.68351        41.50086         0.73444
C         46.41642        42.22547         0.65577
C         47.65781        44.36580         0.46692
C         46.45366        43.65946         0.51692
C         47.67693        45.78610         0.22432
C         46.45182        46.57106         0.41202
C         47.61588        48.44666        -0.85725
C         46.43938        48.04044         0.02741
C         47.68477        49.96521        -1.28312
C         46.27567        50.70395        -1.22408
C         47.62245        52.88700        -0.94272
C         46.37520        52.20925        -1.02425
C         47.65093        54.30173        -0.84783
C         46.42048        55.03187        -0.83202
C         47.69892        57.15252        -0.99523
C         46.40343        56.44950        -0.75390
C         47.64323        58.63436        -0.76350
C         46.47319        59.30089        -0.47767
C         47.70383        61.44306        -0.29220
C         46.47865        60.75881        -0.32185
C         48.92931        37.96011         0.50976
C         50.16116        40.10203         0.62886
C         48.95129        39.37740         0.59973
C         50.16649        41.51941         0.66040
C         48.91498        42.22600         0.66318
C         50.12467        44.36476         0.57371
C         48.92087        43.65213         0.58111
C         50.10112        45.86820         0.71262
C         48.88164        46.51437         0.11175
C         50.10684        48.62763        -0.23547
C         48.90422        47.87055        -0.28865
C         50.11050        50.03061        -0.47495
C         48.86837        50.74557        -0.71163
C         50.13689        52.91259        -0.92497
C         48.85222        52.12906        -0.79874
C         50.05899        54.32845        -0.40510
C         48.88659        55.00531        -0.52833
C         50.13169        57.20320        -0.37452
C         48.81479        56.48172        -0.17385
C         50.16395        58.59305        -0.64774
C         48.92116        59.36484        -1.07388
C         50.14916        61.44826        -0.54864
C         48.94361        60.79388        -0.57418
C         51.37547        42.25701         0.65009
C         52.58516        44.41749         0.63322
C         51.37638        43.66991         0.62951
C         52.60524        45.83070         0.48080
C         51.37571        46.55818         0.34374
C         52.59508        48.64720         0.05343
C         51.35895        47.93049         0.06653
C         52.60992        50.05786        -0.15890
C         51.35102        50.76762        -0.39715
C         52.58494        52.91633        -0.38212
C         51.36480        52.15906        -0.50266
C         52.55841        54.27239        -0.14287
C         51.27089        55.00731         0.19069
C         52.54035        57.20832        -0.09214
C         51.32523        56.49838        -0.14095
C         52.58379        58.60630        -0.34473
C         51.37902        59.28889        -0.65068
C         52.65069        61.45391        -0.57355
C         51.40243        60.75741        -1.03396
C         53.82035        46.54060         0.44023
C         55.03812        48.67354         0.35803
C         53.82965        47.94648         0.27986
C         55.05467        50.07137         0.17285
C         53.82747        50.74611        -0.14514
C         55.11036        52.91358        -0.10886
C         53.89393        52.17792        -0.60431
C         55.12286        54.38652        -0.34344
C         53.81231        54.99898         0.11915
C         55.06556        57.23353         0.04431
C         53.79853        56.51229         0.19638
C         55.05084        58.62472        -0.11265
C         53.83380        59.31996        -0.27124
C         55.02514        61.47608         0.06094
C         53.81661        60.77542        -0.29257
C         56.25224        50.80948         0.35549
C         57.46702        52.96023         0.60701
C         56.27826        52.23283         0.28450
C         57.49262        54.37690         0.60294
C         56.31412        55.10753         0.22376
C         57.48697        57.24036         0.58545
C         56.29308        56.50385         0.25818
C         57.49411        58.64483         0.51548
C         56.36273        59.36865        -0.18448
C         57.40505        61.49780         0.64615
C         56.24113        60.82020         0.22947
C         58.63771        55.10343         1.00744
C         59.81103        57.25453         1.37464
C         58.66181        56.52062         1.00064
C         59.80795        58.66300         1.36348
C         58.63442        59.36681         0.92407
C         59.77074        61.50315         1.35780
C         58.61292        60.81139         0.94616
C         60.95335        59.41785         1.75793
C         60.92538        60.80474         1.74365
O         39.52642        50.21351        -2.06562
O         36.77916        60.42318         1.77633
O         46.02254        35.57362        -1.47091
O         45.70746        39.60168         2.02136
O         46.72377        47.63406         1.41518
O         53.80971        55.63994         1.42821
O         41.91199        55.02234        -1.96806
O         41.76547        48.60816         1.40013
O         40.63106        43.82090        -1.56676
O         32.15033        56.87830         2.65217
O         56.73567        59.38900        -1.60566
H         57.55403        59.92355        -1.68478
O         48.06072        49.97171        -2.69231
H         48.00869        49.02700        -2.99380
O         43.09784        56.96058         1.69470
H         42.24974        57.12817         2.17709
O         45.64330        50.47871        -2.50016
H         46.36274        50.54369        -3.17424
O         42.70945        41.56744         2.03339
H         41.98911        40.99191         2.36652
O         44.16256        48.15418         1.93138
H         43.25901        48.16521         2.33565
O         48.48141        56.60139         1.22696
H         49.16355        56.10105         1.73053
O         45.45265        44.48509        -1.38591
H         45.14445        43.63570        -1.78210
O         49.96717        46.10358         2.17155
H         49.03172        45.92743         2.41304
O         40.42112        57.01142         2.14725
H         39.72730        57.59445         2.52873
O         34.22308        61.31798         2.29226
H         35.09607        61.06633         2.67225
O         43.47295        43.87252         1.67894
H         44.14851        43.48918         2.27603
O         38.57913        52.58681        -2.38131
H         39.07140        51.91026        -2.90393
O         44.99366        45.70015         2.04674
H         45.09623        46.61306         2.41403
O         44.27530        46.80039        -1.44267
H         44.28052        45.90092        -1.86974
O         48.06833        56.92506        -2.40341
H         47.24371        56.91706        -2.93412
O         34.54499        56.03922         2.81838
H         33.69484        56.08443         3.32058
O         51.39207        60.83133        -2.49860
H         50.55313        60.38949        -2.79259
O         36.25072        55.32172        -1.49262
H         36.52832        54.51288        -1.97697
O         43.05056        44.41696        -1.88425
H         42.17849        44.40049        -2.35069
O         55.12879        54.62023        -1.81759
H         56.04457        54.46030        -2.13264
O         48.99617        59.45237        -2.54370
H         48.87109        58.52386        -2.86988
O         54.05346        52.10462        -2.07169
H         54.26392        53.02711        -2.36502
O         47.34833        47.68507        -2.08222
H         46.37152        47.62915        -2.20102
O         51.11130        54.93708         1.64798
H         51.98001        55.22113         2.02786
O         39.24243        54.56676         1.75071
H         39.79687        55.28226         2.15282
O         33.05643        61.32915        -1.16149
H         32.93773        60.39979        -1.44701
O         45.69191        50.58681         1.13115
H         45.28954        49.95935         1.77674
O         43.98258        42.01280        -1.41262
H         43.86602        41.05787        -1.60832
O         50.29487        53.07200        -2.39302
H         50.24676        52.17478        -2.78927
H         29.47808        56.59154         0.75466
H         28.27251        58.68247         0.69688
H         30.44654        62.38854         0.25095
H         28.27516        61.15380         0.40486
H         31.85554        52.27910         0.74480
H         30.67013        54.39211         1.11335
H         32.84099        62.46062         0.55026
H         34.30786        48.05206         0.13843
H         33.07201        50.15384         0.35265
H         35.17916        61.98393        -0.75108
H         36.75588        43.83840         0.38456
H         35.54857        45.95079         0.17578
H         38.03490        62.51717        -0.50463
H         39.28428        39.49163         0.15601
H         38.02682        41.62688         0.27727
H         40.32627        62.48655        -0.26430
H         41.82125        35.24358        -0.17584
H         40.57748        37.33951        -0.08797
H         42.76914        62.51830        -0.21394
H         45.22754        31.88466        -0.11274
H         43.09912        33.10843        -0.33223
H         45.23987        62.53303        -0.14886
H         47.36752        33.05126         0.26256
H         48.69917        35.27874         0.42753
H         47.71082        62.52286        -0.07808
H         49.88764        37.41952         0.50131
H         51.11765        39.55992         0.59698
H         50.19545        62.51189        -0.26647
H         52.33389        41.71725         0.65445
H         53.54258        43.88049         0.70842
H         52.65562        62.55495        -0.57828
H         54.77164        46.00471         0.57178
H         55.97520        48.14366         0.58258
H         54.97027        62.56378         0.22418
H         57.17552        50.27002         0.61393
H         58.36616        52.40527         0.90953
H         57.35897        62.58501         0.81450
H         59.53608        54.55435         1.32751
H         60.71904        56.71702         1.68587
H         59.76118        62.60215         1.38280
H         61.85984        58.88500         2.07866
H         61.81594        61.36948         2.05401
