         732
 CSIRO Nanostructure Databank - Neutral Graphene Oxide Data Set
C         23.10204        24.76749         1.60239
C         21.91061        25.48995         1.65770
C         23.08247        27.52701         0.99828
C         21.88991        26.84738         1.36228
C         23.07456        28.93471         0.72206
C         21.90174        29.73933         0.97188
C         22.87358        31.56293        -0.38872
C         21.82089        31.01776         0.53898
C         22.86651        33.09253        -0.51390
C         21.71508        33.89240        -0.06597
C         23.01311        35.98715        -0.19721
C         21.78908        35.24284         0.01950
C         23.01152        37.43179        -0.14192
C         21.82739        38.16817         0.11394
C         22.99286        40.28597        -0.18575
C         21.81967        39.54813         0.11508
C         22.98140        41.74111        -0.27062
C         21.78007        42.46178        -0.16458
C         22.94722        44.59892        -0.39884
C         21.76367        43.84820        -0.22543
C         22.91005        46.03635        -0.43631
C         21.72781        46.75275        -0.23171
C         22.92003        48.87746        -0.26194
C         21.71731        48.15324        -0.21071
C         25.60329        23.26517         1.51032
C         25.53582        24.62782         1.12144
C         24.31611        25.38065         1.20631
C         25.51940        27.47956         0.58255
C         24.29803        26.78495         0.89038
C         25.51558        28.88461         0.35789
C         24.26904        29.60522         0.32006
C         25.45461        31.69044        -0.30106
C         24.23887        30.97082        -0.06196
C         25.43903        33.07603        -0.53999
C         24.17913        33.83604        -0.62827
C         25.46375        36.00311        -0.49100
C         24.21146        35.29881        -0.41273
C         25.46764        37.42915        -0.50883
C         24.21840        38.14923        -0.38298
C         25.39126        40.31417        -0.81146
C         24.18076        39.56826        -0.43582
C         25.43021        41.76940        -0.61268
C         24.20180        42.47357        -0.45489
C         25.43779        44.61240        -0.66078
C         24.19267        43.89959        -0.51898
C         25.44558        46.06563        -0.66185
C         24.14024        46.79252        -0.88148
C         25.39793        48.94365        -0.31587
C         24.14470        48.23764        -0.44244
C         25.42253        50.33450        -0.07869
C         28.05189        23.21299         1.29193
C         26.77862        22.55307         1.56592
C         28.04529        24.60245         0.82574
C         26.73479        25.25882         0.45609
C         27.95557        27.47487         0.49585
C         26.75418        26.76904         0.55908
C         27.97221        28.88738         0.29069
C         26.73892        29.58511         0.15192
C         27.94882        31.66677        -0.30897
C         26.72796        30.98845        -0.16381
C         27.98503        33.08565        -0.70754
C         26.66967        33.83390        -0.79777
C         27.93034        35.99348        -0.58957
C         26.69459        35.30320        -0.62340
C         27.93744        37.42377        -0.56894
C         26.70595        38.11173        -0.61547
C         27.95419        40.32780        -0.71560
C         26.70843        39.56123        -0.86965
C         27.90864        41.71858        -0.74106
C         26.66005        42.45197        -0.68676
C         27.92842        44.60820        -0.75415
C         26.64214        43.88849        -0.68135
C         27.92693        46.11198        -0.66774
C         26.62276        46.79452        -0.56201
C         27.86375        48.90592        -0.08749
C         26.63254        48.22712        -0.35034
C         27.84408        50.31034         0.12831
C         26.62384        50.99772         0.12974
C         30.54287        20.31346         0.86616
C         29.36841        20.95095         1.05747
C         30.44787        23.11620         0.31247
C         29.34913        22.43184         1.10534
C         30.50470        24.60663         0.55608
C         29.25460        25.28144         0.68122
C         30.52728        27.49212         0.52843
C         29.22893        26.75786         0.71721
C         30.46197        28.91456         0.15857
C         29.21642        29.59371         0.13302
C         30.42555        31.71556        -0.24437
C         29.19542        30.99460        -0.13354
C         30.42858        33.15535        -0.33978
C         29.21626        33.86635        -0.48835
C         30.42059        36.00371        -0.38945
C         29.19316        35.27822        -0.52950
C         30.42187        37.45728        -0.42572
C         29.18948        38.16527        -0.54511
C         30.42915        40.31399        -0.56126
C         29.18789        39.58931        -0.60197
C         30.44533        41.72892        -0.60668
C         29.18838        42.49602        -0.93728
C         30.42704        44.61888        -0.33573
C         29.13146        43.84639        -0.22433
C         30.39519        46.05219        -0.15461
C         29.15882        46.80019        -0.21273
C         30.31368        48.86827         0.62727
C         29.10614        48.16551         0.03467
C         30.36871        50.33671         0.30378
C         29.08747        51.10225         0.47195
C         30.34371        53.07375        -0.39138
C         29.15889        52.44361        -0.20826
C         33.14165        18.94758         0.97836
C         33.05683        20.32865         0.68365
C         31.79960        21.03409         0.68037
C         32.97706        23.14534         0.22055
C         31.77746        22.41418         0.47574
C         32.95136        24.56806         0.04852
C         31.71761        25.30070         0.28951
C         32.92308        27.42556        -0.11534
C         31.74439        26.71948         0.22812
C         32.90374        28.85602        -0.19001
C         31.66830        29.59232        -0.09020
C         32.89432        31.73398        -0.29203
C         31.65565        31.01654        -0.22004
C         32.89853        33.14884        -0.25494
C         31.65291        33.87640        -0.26282
C         32.89372        36.02354         0.13022
C         31.63067        35.29194        -0.24347
C         32.90571        37.47036        -0.29032
C         31.66183        38.16984        -0.40577
C         32.88268        40.33665        -0.59714
C         31.66338        39.60278        -0.49261
C         32.89276        41.73998        -0.63061
C         31.65502        42.45685        -0.55976
C         32.91002        44.67813        -0.55935
C         31.61377        43.91207        -0.45728
C         32.85918        46.05518         0.05982
C         31.61299        46.76074         0.06502
C         32.81197        48.87320         0.37891
C         31.60776        48.16069         0.32712
C         32.82928        50.31559         0.36423
C         31.57065        51.02276         0.21435
C         32.83017        53.14509        -0.06240
C         31.60232        52.44272        -0.06256
C         32.91099        54.54924        -0.33126
C         35.54161        18.93722         0.53757
C         34.35093        18.27923         0.92283
C         35.49491        20.32277         0.24496
C         34.25633        21.03016         0.35792
C         35.39959        23.13043        -0.24969
C         34.21058        22.43850         0.12663
C         35.36051        24.53082        -0.50531
C         34.14061        25.25680        -0.30265
C         35.31043        27.41528        -0.69113
C         34.13636        26.70586        -0.39319
C         35.32425        28.83762        -0.62421
C         34.11184        29.56301        -0.39756
C         35.34889        31.69587        -0.44622
C         34.11980        30.99822        -0.39022
C         35.36173        33.12544        -0.34307
C         34.14148        33.85904        -0.26952
C         35.37664        35.98612        -0.27106
C         34.16250        35.28250        -0.21796
C         35.38371        37.43086        -0.34029
C         34.13295        38.13139        -0.43063
C         35.47645        40.32052        -0.64159
C         34.13746        39.56886        -0.75615
C         35.43421        41.75944        -0.41557
C         34.19975        42.49718        -0.87704
C         35.28578        44.43883         0.38642
C         34.12248        43.85388        -0.24066
C         35.23909        45.94233         0.74530
C         34.03391        46.72031         0.38498
C         35.26351        48.87097         0.52727
C         34.06143        48.16081         0.43977
C         35.28502        50.30501         0.52007
C         34.02983        51.02538         0.42858
C         35.27126        53.16879         0.33221
C         34.05765        52.46094         0.25479
C         35.33064        54.55901         0.04906
C         34.10595        55.21942        -0.29392
C         38.07792        16.15083         0.70335
C         36.89052        16.86119         0.80506
C         37.95270        18.86651        -0.08875
C         36.80347        18.22098         0.42289
C         37.91108        20.27080        -0.45199
C         36.67402        21.00994        -0.21399
C         37.72495        23.06589        -1.12433
C         36.60259        22.38485        -0.46009
C         37.76783        24.54127        -1.08708
C         36.57235        25.21806        -0.87616
C         37.82689        27.36732        -1.02117
C         36.50741        26.67493        -1.24469
C         37.78833        28.83620        -1.05063
C         36.54420        29.56493        -0.76373
C         37.82354        31.65193        -0.34332
C         36.57383        30.96279        -0.58489
C         37.81423        33.08871        -0.10018
C         36.59601        33.82086        -0.22591
C         37.84331        35.92307        -0.01048
C         36.62110        35.24979        -0.18973
C         37.92764        37.38772        -0.34805
C         36.61717        38.14332        -0.29331
C         37.89305        40.27969        -0.03337
C         36.67502        39.54314        -0.28965
C         37.85333        41.67051         0.07637
C         36.61361        42.42355        -0.00506
C         37.78427        44.46864         0.98412
C         36.60009        43.79797         0.32011
C         37.82336        45.97024         0.80599
C         36.53801        46.67176         0.94344
C         37.80550        48.82847         0.50113
C         36.53168        48.16801         0.80810
C         37.75588        50.27542         0.29209
C         36.49540        50.99351         0.53417
C         37.80127        53.17483         0.59848
C         36.49736        52.46876         0.86512
C         37.82541        54.53901         0.31679
C         36.58381        55.25863         0.08570
C         37.85177        57.34365        -0.06961
C         36.65442        56.66183        -0.11322
C         40.61138        14.70720         0.69494
C         40.48913        15.99361         0.11993
C         39.24231        16.74421         0.19396
C         40.28238        18.70033        -0.87712
C         39.17708        18.11579        -0.25437
C         40.23809        20.09430        -1.43980
C         39.03768        20.89199        -0.98433
C         40.24396        23.08880        -1.83539
C         38.97697        22.29030        -1.45153
C         40.26020        24.51888        -1.26860
C         39.04940        25.22116        -1.16817
C         40.29409        27.36518        -0.82800
C         39.02919        26.67445        -1.01402
C         40.31706        28.75988        -0.56659
C         39.09929        29.56724        -0.75816
C         40.19265        31.52734         0.38783
C         39.00401        30.93074        -0.24079
C         40.19847        33.00708         0.59243
C         38.99147        33.77126         0.23004
C         40.28281        35.87060         0.49819
C         39.03670        35.19939         0.27859
C         40.30682        37.32955         0.68286
C         39.03420        38.10051         0.39506
C         40.34040        40.18891         0.45015
C         39.13397        39.56186         0.21523
C         40.39443        41.65700         0.38546
C         39.10671        42.42109         0.22215
C         40.26774        44.53995         0.70978
C         39.09867        43.84067         0.61645
C         40.28868        45.98933         0.78858
C         39.00537        46.68802         0.78134
C         40.26551        48.86021         0.62155
C         39.00502        48.13793         0.60847
C         40.29545        50.23071         0.57933
C         39.07545        51.02087         0.36047
C         40.33792        53.12160         0.59875
C         39.05614        52.42285         0.96210
C         40.41180        54.58899         0.28800
C         39.06895        55.27484         0.29467
C         40.34056        57.39189         0.34066
C         39.08485        56.65322         0.12729
C         40.41762        58.77607         0.08807
C         42.91657        14.57403        -0.02747
C         41.80757        14.00721         0.60854
C         42.83018        15.84899        -0.60018
C         41.60796        16.55092        -0.53882
C         42.76050        18.72587        -0.83136
C         41.51507        17.91022        -1.19100
C         42.73613        20.20021        -1.00800
C         41.55397        20.85482        -1.25752
C         42.81997        23.05712        -1.27198
C         41.55470        22.30126        -1.59811
C         42.75931        24.51521        -0.99905
C         41.51998        25.20107        -1.04815
C         42.73167        27.31663        -0.54020
C         41.50783        26.62614        -0.79051
C         42.73874        28.71846        -0.27506
C         41.51736        29.41653        -0.24602
C         42.76492        31.57842         0.27546
C         41.50475        30.79853         0.28269
C         42.76924        32.94544         0.42064
C         41.52702        33.71390         0.61867
C         42.74538        35.86380         0.42098
C         41.53097        35.18884         0.46568
C         42.85557        37.27947         0.90796
C         41.57948        38.05427         0.68956
C         42.82774        40.16362         0.55237
C         41.59867        39.46146         0.61658
C         42.87831        41.61742         0.78911
C         41.57723        42.35826         0.96938
C         42.77998        44.53949         0.43460
C         41.58242        43.87959         1.06934
C         42.73537        45.95793         0.40422
C         41.49925        46.65999         0.73563
C         42.77259        48.85217         0.54319
C         41.53581        48.13810         1.04643
C         42.79434        50.25369         0.56885
C         41.54207        50.97501         1.04528
C         42.75627        53.21239         0.44741
C         41.50030        52.44062         0.64894
C         42.82819        54.58373         1.00861
C         41.44900        55.25191         1.25412
C         42.35837        57.58037         1.64071
C         41.41029        56.75769         1.02475
C         42.41023        58.96505         1.43831
C         41.46498        59.54702         0.59190
C         45.33483        15.84715        -1.09794
C         43.99094        16.50311        -1.35788
C         45.29478        18.76613        -1.17509
C         44.04871        17.98423        -0.94254
C         45.27430        20.19709        -0.84948
C         44.01356        20.91024        -0.88731
C         45.31502        23.04027        -0.99179
C         44.01772        22.29610        -0.86070
C         45.21405        24.46358        -0.50867
C         43.97751        25.17492        -0.64121
C         45.15411        27.30396        -0.15806
C         43.96159        26.59950        -0.44845
C         45.19789        28.71191        -0.05897
C         43.97360        29.44049        -0.07881
C         45.24165        31.55514         0.00169
C         43.99678        30.84302         0.09224
C         45.26681        32.98020         0.05361
C         44.05742        33.72037         0.56256
C         45.25872        35.86162         0.00111
C         43.94805        35.10831        -0.07518
C         45.24606        37.31701         0.10294
C         44.10484        37.99409         0.45056
C         45.29502        40.18688         0.11813
C         44.14770        39.46611         0.77066
C         45.11959        41.60589        -0.36877
C         44.05640        42.39828         0.37466
C         45.07247        44.47401        -0.53579
C         43.95117        43.77596         0.13758
C         45.04265        45.99612        -0.52990
C         43.89032        46.69949         0.05129
C         45.14814        48.83157        -0.10745
C         43.93456        48.12846         0.16252
C         45.17930        50.25420        -0.05208
C         43.97515        50.94944         0.22955
C         45.30214        53.07721         0.45364
C         44.00781        52.42858         0.19875
C         45.32921        54.34013         1.08030
C         44.08970        55.06834         1.39627
C         45.48954        56.63987         2.72640
C         44.26553        56.25979         2.19813
C         46.49031        16.52010        -0.97231
C         47.79875        18.73311        -0.65294
C         46.59969        17.99514        -1.12405
C         47.73088        20.11755        -0.43821
C         46.50317        20.85848        -0.60963
C         47.71183        22.99376        -0.23329
C         46.52132        22.28349        -0.49815
C         47.64120        24.40762        -0.08617
C         46.40263        25.10158        -0.11429
C         47.62345        27.31778         0.46124
C         46.35251        26.54324         0.20931
C         47.68419        28.74907         0.14989
C         46.45195        29.43249        -0.01173
C         47.70749        31.54729        -0.57037
C         46.44621        30.83941        -0.15456
C         47.69807        33.03164        -0.31802
C         46.46006        33.70385        -0.16786
C         47.65102        35.88325        -0.67231
C         46.42765        35.16185        -0.17128
C         47.68011        37.33570        -0.26368
C         46.52041        38.03865        -0.03740
C         47.65644        40.22849        -0.49172
C         46.48502        39.50613        -0.07825
C         47.61079        41.62569        -0.72143
C         46.41784        42.35256        -0.55907
C         47.51908        44.52292        -1.01119
C         46.38748        43.78408        -0.69590
C         47.47429        46.00972        -1.31438
C         46.31094        46.71455        -0.65842
C         47.57708        48.79485        -0.61659
C         46.34176        48.08033        -0.43283
C         47.56238        50.19822        -0.65444
C         46.41144        50.99083        -0.30479
C         47.71533        53.15388         0.11206
C         46.47936        52.38626         0.02788
C         47.82490        54.26872         0.98212
C         46.60764        54.86764         1.50114
C         46.66285        55.96535         2.36127
C         50.21766        18.73700        -0.21357
C         49.03011        18.05012        -0.47843
C         50.23689        20.11782         0.00810
C         48.91383        20.81576         0.20556
C         50.18643        22.96730         0.06072
C         48.97508        22.30051        -0.04486
C         50.22632        24.44034        -0.03518
C         48.90632        25.16071        -0.00595
C         50.17927        27.30087         0.57847
C         48.90059        26.55092         0.53068
C         50.15522        28.76150         0.38906
C         48.94011        29.43951         0.13187
C         50.17054        31.56209        -0.11254
C         48.97201        30.86025        -0.11683
C         50.19421        33.01160        -0.32603
C         48.93405        33.74374        -0.35801
C         50.17090        35.85727        -0.65602
C         48.94985        35.14687        -0.45735
C         50.16282        37.25288        -0.80423
C         48.97881        38.02171        -0.36496
C         50.10844        40.20199        -1.15769
C         48.94364        39.52592        -0.51972
C         50.15195        41.66887        -1.10761
C         48.82404        42.33067        -1.20352
C         50.04798        44.57220        -1.39720
C         48.76743        43.82670        -1.37605
C         50.03577        45.94297        -1.27419
C         48.80607        46.70577        -1.07841
C         50.12565        48.80846        -0.52556
C         48.81551        48.06185        -0.79453
C         50.03835        50.27179        -0.92099
C         48.79324        50.80235        -1.10806
C         50.17556        53.21773        -0.29479
C         48.86801        52.82962        -0.63127
C         50.27043        54.24567         0.67514
C         49.12069        54.80010         1.22739
C         52.71393        20.18871         0.29316
C         51.46232        20.85152         0.19321
C         52.66834        23.00609         0.41425
C         51.44645        22.27784         0.25301
C         52.67649        24.45104         0.50119
C         51.46409        25.16971         0.35244
C         52.64701        27.30796         0.65581
C         51.45375        26.56919         0.42968
C         52.59977        28.74494         0.66810
C         51.39742        29.45047         0.43307
C         52.62516        31.56520         0.09096
C         51.41166        30.87886         0.17298
C         52.68185        32.90665        -0.59465
C         51.39409        33.68649        -0.46690
C         52.63912        35.80232        -0.71701
C         51.43398        35.12205        -0.65495
C         52.69979        37.21828        -1.09708
C         51.37717        37.95744        -1.22236
C         52.65375        40.20870        -1.29491
C         51.38696        39.45185        -1.36730
C         52.61961        41.59570        -1.31442
C         51.33627        42.32142        -1.32581
C         52.62844        44.48500        -1.62389
C         51.30562        43.78163        -1.61126
C         52.62367        45.96080        -1.39029
C         51.32646        46.69472        -1.24801
C         52.17048        48.98292        -1.88510
C         51.23366        48.17592        -1.32323
C         52.40672        50.37396        -1.53910
C         51.23996        51.07798        -1.13228
C         52.58471        53.07914        -0.98325
C         51.31792        52.47234        -0.84246
C         53.89161        20.89287         0.44369
C         55.15445        23.04237         0.63791
C         53.90667        22.30901         0.50213
C         55.14699        24.45386         0.82462
C         53.88436        25.17204         0.76516
C         55.07230        27.33673         1.21607
C         53.85245        26.58417         0.85961
C         55.11547        28.78562         0.95092
C         53.81400        29.54578         1.06170
C         55.05147        31.60863         0.36299
C         53.84958        30.92410         0.44018
C         55.08037        33.03871         0.09846
C         53.92129        33.69009        -0.24669
C         54.97324        35.95417         0.13277
C         53.98310        35.12393        -0.69514
C         55.05670        37.39281        -0.37850
C         53.93671        38.00921        -0.87901
C         55.15257        40.22343        -0.92917
C         53.96727        39.43458        -1.42878
C         55.11216        41.65126        -0.96602
C         53.87132        42.35177        -1.21096
C         55.07340        44.49613        -1.02180
C         53.87702        43.75271        -1.26941
C         55.10872        45.92491        -1.16046
C         53.94228        46.61381        -1.59641
C         55.13410        48.77603        -1.61670
C         54.07205        47.92237        -2.01735
C         54.99985        50.20964        -1.58484
C         53.70725        50.95799        -1.56343
C         53.72464        52.35699        -1.31529
C         57.59904        23.07477         0.67175
C         56.40476        22.38321         0.56749
C         57.61823        24.47213         0.88768
C         56.38090        25.14542         0.97189
C         57.63285        27.36276         1.07243
C         56.38741        26.59323         1.25525
C         57.59831        28.75584         0.95296
C         56.31652        29.43824         0.84318
C         57.60381        31.63946         0.51510
C         56.32137        30.86398         0.44796
C         57.50102        33.11081         0.55550
C         56.33057        33.78728         0.28418
C         57.47685        35.98215         0.23130
C         56.31145        35.25013         0.21300
C         57.50157        37.42713         0.05622
C         56.31160        38.11441        -0.25728
C         57.53817        40.24914        -0.29269
C         56.33204        39.53595        -0.50647
C         57.62720        41.68335        -0.74859
C         56.30188        42.39767        -0.74279
C         57.49735        44.57191        -0.50050
C         56.29426        43.81189        -0.75172
C         57.49668        45.98169        -0.58639
C         56.30552        46.66885        -0.99544
C         57.46961        48.85655        -0.83657
C         56.30441        48.10003        -1.14378
C         57.39462        50.25102        -0.99592
C         56.19822        50.89963        -1.31126
C         60.10868        24.54726         1.09074
C         58.87778        25.21326         1.02868
C         60.09472        27.36989         1.16872
C         58.87246        26.64370         1.07758
C         60.06035        28.82193         1.21316
C         58.83240        29.51479         1.01140
C         60.00825        31.66975         1.23161
C         58.83447        30.94299         0.96851
C         59.98836        33.16512         1.24892
C         58.72128        33.87154         0.88204
C         60.06406        36.00133         0.38880
C         58.76955        35.25872         0.32761
C         59.99001        37.48477         0.41519
C         58.74199        38.14451         0.18826
C         59.92764        40.32387         0.33517
C         58.72701        39.57517         0.08463
C         59.88318        41.78611         0.35362
C         58.74088        42.46426        -0.09876
C         59.83548        44.62758         0.32660
C         58.69794        43.88249        -0.09335
C         59.83406        46.07707         0.22835
C         58.67252        46.74575        -0.25449
C         59.82048        48.88817        -0.00649
C         58.66722        48.17045        -0.36670
C         61.30901        25.26148         1.18796
C         61.30899        26.64947         1.22239
C         61.23179        29.57799         1.45148
C         61.20100        30.96146         1.49301
C         61.24808        33.95171         1.16037
C         61.26324        35.26612         0.87533
C         61.14609        38.23807         0.60763
C         61.11281        39.63845         0.59310
C         60.97414        42.54054         0.85081
C         60.95786        43.92146         0.81699
C         60.96723        46.84112         0.58055
C         60.95731        48.22636         0.45992
O         53.05908        48.44238        -2.81946
O         52.11339        46.29176        -0.02500
O         39.30879        37.70068         1.75054
O         48.61304        42.92424        -2.53475
O         34.99224        44.97023         1.77292
O         37.93736        22.49421        -2.47301
O         34.89465        39.91915        -1.96246
O         38.57678        29.43875        -2.12907
O         41.44202        50.92755         2.47480
O         40.79578        33.38615         1.86903
O         52.05541        37.40709        -2.41422
O         59.58313        35.41003        -0.88488
O         25.97102        39.90023        -2.10179
O         48.68831        52.03452        -1.77226
O         42.20581        41.79428         2.13437
O         38.44045        50.82541        -0.92499
O         43.27283        53.05443        -0.94313
O         43.71828        16.40553        -2.74172
O         49.65958        25.02079        -1.27240
O         23.36684        33.49166        -1.83584
O         57.12867        31.08529        -0.77579
O         43.46701        18.27232         0.37247
O         49.29504        38.91467         0.78030
O         28.12797        45.39827        -1.95141
O         43.20161        57.03887         2.62668
O         27.37133        33.36481        -2.01424
O         55.66731        26.93927         2.50414
O         49.52717        26.76799         1.83348
O         52.00528        44.09025        -2.88192
O         59.10308        33.73619         2.30187
O         46.04356        18.46969        -2.39351
O         29.97358        27.25922         1.88710
O         44.67626        45.19186        -1.75316
O         40.72891        30.81162         1.54887
O         29.06077        22.99719         2.38754
O         40.04004        42.20173        -0.92412
O         50.48643        39.75933        -2.50626
O         46.75649        26.92165         1.58425
O         42.49912        22.65618        -2.66855
O         36.48680        47.51959         2.14842
O         47.71656        31.42049        -2.05113
H         48.44896        31.98123        -2.38792
O         24.00543        46.85606        -2.36329
H         23.16898        47.33273        -2.55404
O         47.21882        46.08565        -2.75784
H         46.31386        45.71890        -2.89926
O         30.07245        22.94101        -1.09350
H         30.78045        23.33177        -1.64797
O         44.26090        33.94322         1.98728
H         44.14164        33.08968         2.45428
O         45.52018        23.14193        -2.46041
H         44.63773        23.12791        -2.89567
O         40.07286        19.99232        -2.89564
H         40.59870        19.19557        -3.17847
O         33.08258        45.00166        -1.99876
H         33.34797        44.16337        -2.45916
O         54.42002        36.00607         1.47731
H         55.08697        36.41091         2.07015
O         39.05853        52.21472         2.40859
H         39.94269        51.76370         2.63492
O         22.54118        31.04394        -1.71706
H         22.96263        31.66169        -2.36077
O         41.69976        44.21874         2.48769
H         42.12213        43.44903         2.93826
O         37.63326        44.22331         2.42636
H         36.77152        44.62188         2.69419
O         44.53732        41.44568        -1.73099
H         44.62736        42.30679        -2.19584
O         50.42284        48.69533         0.89303
H         50.91532        47.85509         1.02571
O         29.26934        42.79336        -2.35972
H         29.14284        41.95961        -2.85853
O         54.14932        39.27832        -2.87773
H         53.40868        38.70301        -3.18949
O         52.82262        32.63239        -2.04958
H         53.60634        32.05062        -2.15886
O         41.50774        17.75128        -2.63878
H         42.33154        17.19153        -2.89221
O         43.00814        37.18213         2.38893
H         42.24042        36.67399         2.73220
O         36.36061        52.50544         2.33829
H         37.26502        52.33052         2.71245
O         41.59037        48.24417         2.49999
H         41.54838        49.22950         2.71318
O         58.00445        41.59563        -2.17936
H         57.29271        41.09890        -2.63888
O         44.38279        39.56391         2.22125
H         43.87020        38.83123         2.64594
O         41.04502        54.98344         2.60872
H         41.65531        55.46504         3.20743
O         32.87358        36.05174         1.61511
H         33.71584        36.45981         1.91008
O         40.89681        54.78660        -1.06624
H         41.59509        54.12653        -1.27293
O         26.57890        24.98454        -0.99817
H         25.73325        25.39244        -1.28380
O         36.29396        26.69703        -2.70452
H         37.04700        26.22567        -3.12246
O         34.30176        42.62557        -2.36074
H         34.44211        41.70590        -2.69790
O         54.46212        35.11399        -2.06540
H         53.85385        34.53668        -2.58020
O         30.12880        48.78405         2.09351
H         29.56115        49.55301         2.35034
O         43.71425        34.86145        -1.49955
H         43.57663        35.72430        -1.94371
O         47.49338        35.90416        -2.14282
H         46.60329        36.26453        -2.34387
O         28.89673        43.58163         1.18407
H         29.11074        44.39012         1.69513
O         28.96968        51.36086         1.93697
H         29.71027        51.95813         2.18039
O         40.16293        23.31398        -3.25931
H         40.06901        22.43756        -3.69164
O         38.34976        37.44182        -1.75455
H         37.58791        37.17227        -2.31031
O         53.66026        29.79659         2.50805
H         53.71482        28.92964         2.96575
O         48.64558        20.70290         1.67056
H         48.66202        19.74663         1.89142
H         23.07462        23.69881         1.84994
H         20.98016        24.97896         1.94142
H         20.93612        27.38808         1.40945
H         21.07719        29.32110         1.56599
H         20.91632        31.60080         0.75671
H         20.76595        33.39671         0.17803
H         20.88314        35.78864         0.31356
H         20.88467        37.64649         0.32170
H         20.87737        40.06688         0.33348
H         20.82480        41.93592        -0.03966
H         20.79421        44.35616        -0.14476
H         20.78404        46.22876        -0.02997
H         22.87384        49.95968        -0.08111
H         20.77086        48.68652        -0.04941
H         24.68612        22.75198         1.83133
H         24.49140        50.91424        -0.04928
H         26.78133        21.52231         1.94374
H         26.60477        52.07594         0.33715
H         30.55689        19.21516         0.86686
H         28.44740        20.38360         1.25162
H         30.34787        54.08320        -0.82690
H         28.22727        52.95571        -0.48782
H         32.24416        18.38441         1.26461
H         31.99950        55.10869        -0.58180
H         34.36017        17.20790         1.16021
H         34.11013        56.29227        -0.52759
H         38.08483        15.10201         1.02578
H         36.01268        16.34377         1.21175
H         37.84639        58.43521        -0.19172
H         35.73451        57.23811        -0.27778
H         39.76796        14.24988         1.22823
H         39.63111        59.26967        -0.49802
H         43.85654        14.00714        -0.05889
H         41.88891        13.00835         1.05936
H         43.18123        59.56729         1.93503
H         41.50359        60.62450         0.38161
H         45.36813        14.74747        -1.08537
H         45.53427        57.51161         3.39129
H         47.41768        15.95116        -0.80435
H         47.62395        56.32923         2.74563
H         51.15597        18.16618        -0.24196
H         49.08386        16.97066        -0.66997
H         51.25631        54.62493         0.97942
H         49.23609        55.64667         1.91740
H         52.75945        19.09202         0.26715
H         52.68139        54.15871        -0.79803
H         54.82784        20.32680         0.53217
H         54.66618        52.91807        -1.36855
H         58.53863        22.51337         0.58650
H         56.44787        21.29877         0.40309
H         58.27838        50.87560        -0.80755
H         56.22329        51.99659        -1.31496
H         60.15176        23.45054         1.06727
H         59.83975        49.98323        -0.08377
H         62.26115        24.71492         1.23156
H         62.26889        27.17858         1.28413
H         62.18772        29.07055         1.63541
H         62.12829        31.50645         1.71399
H         62.19290        33.45608         1.42734
H         62.22422        35.80026         0.90450
H         62.11070        37.73972         0.77027
H         62.05113        40.18287         0.75893
H         61.86082        42.03384         1.25372
H         61.83903        44.46448         1.18256
H         61.87684        46.35112         0.95109
H         61.84965        48.80501         0.73593
