         324
 CSIRO Nanostructure Databank - Neutral Graphene Oxide Data Set
C          1.30661         3.41251         0.94661
C          0.08279         4.05280         0.83075
C          1.16640         6.15734         0.16717
C          0.00730         5.39557         0.43850
C          1.08334         7.53434        -0.21650
C         -0.15733         8.18746        -0.38975
C          0.99930        10.27443        -0.91074
C         -0.19682         9.49991        -0.81039
C          1.06777        12.59078        -0.46242
C         -0.09642        13.35598        -0.07266
C          1.32694        14.86929         1.17835
C         -0.00135        14.34455         0.84734
C          1.43136        16.32158         1.63872
C          0.24143        17.15107         1.88616
C          1.48961        19.25950         1.59337
C          0.29202        18.51740         1.83506
C          1.48595        20.66546         1.44381
C          0.32262        21.45359         1.67130
C          1.42910        23.58112         1.15744
C          0.31844        22.84976         1.58519
C          1.41890        25.01724         0.99029
C          0.25176        25.79764         1.19491
C          1.37991        27.84290         0.49268
C          0.22570        27.16351         0.91737
C          1.35815        29.23204         0.07309
C          3.74472         3.44870         0.71813
C          2.51574         4.11398         0.67594
C          3.64648         6.22525         0.11082
C          2.45555         5.51630         0.30482
C          3.63541         7.62698        -0.35877
C          2.30469         8.30623        -0.52881
C          3.54405        10.61278        -0.80202
C          2.25852         9.78259        -0.63683
C          3.56259        11.94174         0.03313
C          2.34218        12.86486        -0.00847
C          3.72165        14.84029         0.43014
C          2.50388        14.19157         0.56479
C          3.77459        16.32396         0.54093
C          2.62507        17.07415         1.12846
C          3.95240        19.19697         0.94943
C          2.80217        18.49561         1.63876
C          3.88018        20.63966         0.83951
C          2.71424        21.35155         1.07461
C          3.88187        23.58772         0.63626
C          2.60327        22.79879         0.61602
C          3.83692        24.96079         0.39132
C          2.60488        25.69320         0.56320
C          3.78716        27.78885        -0.01485
C          2.60346        27.10785         0.37350
C          3.84516        29.29335        -0.01852
C          2.48678        29.90037        -0.26811
C          6.15810         3.44099         0.24559
C          4.96010         4.11794         0.38615
C          6.09534         6.30239         0.07547
C          4.91030         5.56459         0.17892
C          6.06800         7.78925         0.36090
C          4.83254         8.48034        -0.17486
C          6.07013        10.58081        -0.36774
C          4.81274         9.82972        -0.40127
C          6.06929        11.99726        -0.47616
C          4.84232        12.73771        -0.24903
C          6.06544        14.90792        -0.44843
C          4.86564        14.11739        -0.07830
C          6.17757        16.32721        -0.01437
C          5.07611        17.02712         0.42139
C          6.23132        19.19191        -0.06386
C          5.07042        18.48185         0.54406
C          6.27028        20.68662        -0.09751
C          5.14708        21.37666         0.59092
C          6.32129        23.54113        -0.04855
C          5.15917        22.87955         0.55713
C          6.21352        24.92624        -0.34833
C          5.00497        25.64717        -0.08866
C          5.99831        27.68198        -1.07841
C          4.94622        27.05250        -0.33942
C          6.07269        29.13587        -1.25245
C          4.97898        29.87478        -0.82551
C          8.63738         3.44720        -0.18677
C          7.32778         4.15495        -0.36783
C          8.53410         6.32464         0.14808
C          7.34427         5.62222         0.01267
C          8.55299         7.77012         0.04692
C          7.34779         8.47754        -0.02653
C          8.55057        10.56919        -0.50615
C          7.31690         9.88139        -0.29514
C          8.52099        11.96719        -0.74469
C          7.31101        12.67902        -0.67686
C          8.63702        14.85271        -0.78139
C          7.32365        14.15424        -0.82611
C          8.69082        16.29390        -0.58044
C          7.50484        16.98574        -0.06710
C          8.74084        19.22090        -0.58723
C          7.55093        18.50852        -0.08084
C          8.74070        20.67447        -0.64602
C          7.55063        21.40936        -0.28605
C          8.75820        23.57570        -0.57775
C          7.50692        22.81236        -0.33412
C          8.65723        25.03891        -0.93124
C          7.27038        25.56989        -1.04652
C          8.81584        27.92577        -2.11498
C          6.97845        26.83081        -1.59040
C          8.61654        29.31640        -1.74268
C          7.31127        29.83516        -1.55700
C         11.08317         3.44517        -0.04518
C          9.81572         4.11568         0.01173
C         11.07892         6.33099         0.31735
C          9.79388         5.57341         0.30712
C         11.04848         7.79632         0.06155
C          9.81144         8.46827        -0.10958
C         11.05142        10.49641        -0.68718
C          9.80560         9.85627        -0.42672
C         11.08552        11.91614        -1.10964
C          9.77810        12.67002        -1.10308
C         11.08671        14.83816        -0.85445
C          9.78934        14.13696        -0.95032
C         11.07108        16.28881        -1.21141
C          9.84552        17.02475        -0.83236
C         11.14514        19.13902        -1.15181
C          9.89696        18.46911        -0.83891
C         11.08957        20.57886        -1.45019
C          9.89848        21.34773        -1.06527
C         11.16616        23.56039        -1.53136
C         10.01710        22.81294        -0.97106
C         11.19803        24.98670        -1.48865
C          9.91611        25.76533        -1.35499
C         11.16495        27.95859        -1.64730
C          9.92558        27.18392        -1.83733
C         11.03640        29.37207        -1.21258
C          9.78078        30.02136        -1.32451
C         13.52973         3.43514        -0.22860
C         12.30895         4.11911        -0.07793
C         13.56513         6.27775         0.43492
C         12.33244         5.62988        -0.17837
C         13.54120         7.81413         0.35773
C         12.27137         8.47360        -0.08147
C         13.53586        10.42103        -1.10628
C         12.26689         9.81516        -0.53738
C         13.57121        11.93475        -1.08414
C         12.40230        12.62919        -1.05240
C         13.62014        14.88703        -1.16793
C         12.38280        14.10966        -0.93440
C         13.64645        16.25925        -1.17847
C         12.38023        17.01266        -1.34900
C         13.62923        19.19810        -1.24761
C         12.36948        18.48670        -1.25693
C         13.65563        20.61277        -1.30764
C         12.41070        21.32261        -1.64186
C         13.74559        23.55341        -1.58340
C         12.42442        22.82285        -1.73507
C         13.77198        25.08403        -1.59761
C         12.39526        25.70276        -1.46658
C         13.53712        27.86374        -0.75019
C         12.42935        27.18515        -1.44419
C         13.38882        29.24812        -0.41523
C         12.17575        29.97028        -0.66949
C         16.02945         3.41694        -0.23932
C         14.78928         4.10316        -0.10719
C         16.02121         5.95445         0.80398
C         14.79662         5.45324         0.36702
C         16.03538         8.12706         0.64278
C         14.78562         8.61848         0.18400
C         16.03274        10.46937        -0.77999
C         14.78570         9.83891        -0.50268
C         16.17516        11.90504        -0.92745
C         14.89429        12.62890        -1.22056
C         16.05589        14.83925        -0.66120
C         14.88569        14.12346        -1.24012
C         16.07117        16.31377        -0.80616
C         14.89952        17.00968        -1.06076
C         16.01054        19.20299        -0.70360
C         14.85903        18.47380        -1.04791
C         16.00048        20.62723        -0.58440
C         14.83980        21.35083        -0.98010
C         15.94170        23.49849        -0.41477
C         14.87691        22.79361        -0.99804
C         15.85360        24.94792        -0.22725
C         14.79534        25.70842        -0.67219
C         15.82877        27.87025         0.10187
C         14.70986        27.15305        -0.42110
C         15.67100        29.24548         0.51561
C         14.44189        29.88375         0.27430
C         18.55870         3.40676        -0.15613
C         17.26283         4.06372        -0.02695
C         18.49105         6.21636         0.59681
C         17.25139         5.40330         0.43172
C         18.50364         7.65225         0.08420
C         17.24491         8.47118         0.02077
C         18.95651        10.62300        -0.62604
C         17.15823         9.61438        -0.79886
C         18.64756        11.96985        -0.31758
C         17.36636        12.59604        -0.65216
C         18.52761        14.83009        -0.01964
C         17.29170        14.06171        -0.33647
C         18.50897        16.24237        -0.00175
C         17.35449        16.99317        -0.58343
C         18.31618        19.18441         0.33913
C         17.29086        18.49441        -0.49150
C         18.32989        20.65749         0.31253
C         17.16149        21.35004        -0.11412
C         18.24481        23.43178         0.57784
C         17.11392        22.76901         0.02186
C         18.19855        24.89303         0.81488
C         16.95719        25.64593         0.47889
C         18.28346        27.71783         0.34952
C         17.04998        27.12086         0.30568
C         17.99236        29.65591         1.28778
C         16.62832        29.91601         1.37182
C         19.71905         4.03076         0.16441
C         21.05846         6.21339         0.39755
C         19.78464         5.46083         0.55218
C         21.08706         7.55536         0.29860
C         19.86720         8.34490        -0.03017
C         20.76295        10.52414         0.93706
C         19.91085         9.83847         0.06054
C         20.68968        11.91903         1.02659
C         19.66068        12.66089         0.41734
C         20.78292        14.84782         0.88554
C         19.65453        14.12403         0.45875
C         20.76189        16.23646         0.91494
C         19.63177        16.95144         0.48816
C         20.74607        19.23176         1.00440
C         19.54528        18.41834         0.75830
C         20.66787        20.58154         1.10322
C         19.45094        21.32589         0.83790
C         20.46152        23.46746         1.68525
C         19.39136        22.74324         1.00433
C         20.53732        24.81703         1.69628
C         19.52863        25.58816         0.93614
C         20.54789        27.94593         1.43188
C         19.56424        27.09094         0.74121
C         20.26704        29.10348         2.12780
C         19.03073        29.80479         2.22888
O         11.60639        16.56162        -2.53968
O         17.80023        17.85623        -1.70862
O         11.65662        20.82235        -2.79162
O         15.04276        13.39219        -2.49547
O         20.06600        26.16746        -0.29761
O          9.75307        23.28641         0.42841
O          0.75930        11.57450        -1.34623
O         16.04255         7.11362         1.59495
O         13.36281         7.08397         1.61694
O         12.11361        27.78712        -2.76990
O          7.72195        27.26903        -2.67809
O          2.73348        16.97601        -0.31903
O         11.79410        14.51763         0.39473
O          7.79177        17.76635         1.15466
O         18.39212        29.07085         0.05368
O          5.55605        22.10239         1.78998
O         10.37362        12.18916        -2.37284
O         19.16766         5.88036         1.84741
O          3.05883         7.73558        -1.71688
O         16.28172        14.36611         0.72370
O         13.27031        23.13596        -2.90945
O          1.60795        15.23277         2.58787
O         17.22368        25.23074         1.87666
O         18.43565        18.67083         1.71042
O          5.88323        19.91237        -1.29205
O         19.20892         7.75403        -1.19381
O         10.51408         5.88793         1.57525
O         18.20820        10.00307        -1.63684
O          9.44456        25.82103         0.05353
O          6.44149        14.70124        -1.86169
O         12.43436         5.92877        -1.60517
H         11.82441         5.33728        -2.09411
O          3.62977        11.47953         1.41319
H          3.66070        12.26491         1.99952
O         13.56579        10.01711        -2.51113
H         12.84461        10.49133        -2.97765
O          5.96924         7.90295         1.82949
H          6.78738         7.51544         2.20834
O         14.23250        25.48700        -2.92399
H         13.79211        24.88187        -3.56594
O          2.30624        22.65657        -0.84038
H          1.45416        22.17385        -0.91169
O          3.16553        18.37473         3.04694
H          3.27321        19.27766         3.41320
O          7.08444         4.13997        -1.83130
H          6.20050         4.53935        -1.98213
O          3.65407        10.98262        -2.18741
H          3.61529        10.16296        -2.72411
O          4.17047        29.67884         1.38450
H          3.45332        29.32325         1.95246
H          1.35646         2.35370         1.23772
H         -0.84528         3.50195         1.03781
H         -0.98709         5.85148         0.34779
H         -1.10120         7.64748        -0.24162
H         -1.15446         9.99329        -1.02025
H         -1.07499        13.00354        -0.42619
H         -0.89924        14.81851         1.26463
H         -0.70407        16.65719         2.14891
H         -0.64910        19.06573         1.98495
H         -0.60371        20.96437         1.99887
H         -0.60364        23.37413         1.87471
H         -0.67759        25.31382         1.52543
H         -0.71812        27.71826         1.02234
H          0.37770        29.72620        -0.00876
H          3.77124         2.37147         0.93937
H          2.43235        30.94956        -0.59475
H          6.20469         2.35460         0.41110
H          5.02884        30.97452        -0.86635
H          8.65630         2.36648        -0.39626
H          7.26818        30.91822        -1.34659
H         11.08175         2.34694        -0.12483
H          9.68240        31.05485        -0.95849
H         13.52032         2.34082        -0.34564
H         12.13617        31.02790        -0.36737
H         16.01979         2.35666        -0.53160
H         14.30659        30.92145         0.61139
H         18.57679         2.35935        -0.49256
H         16.23989        30.58757         2.15173
H         20.67408         3.49680         0.04088
H         21.99676         5.64821         0.50996
H         22.05139         8.08579         0.30061
H         21.52005         9.97943         1.51800
H         21.43293        12.43543         1.64789
H         21.68509        14.32419         1.22705
H         21.63866        16.77175         1.30282
H         21.72444        18.74007         1.09714
H         21.58722        21.14624         1.31109
H         21.23014        22.88560         2.21238
H         21.37451        25.33582         2.18386
H         21.57533        27.55637         1.47812
H         21.08974        29.50276         2.74400
H         18.89538        30.49475         3.07415
