         404
 CSIRO Nanostructure Databank - Neutral Graphene Oxide Data Set
C          1.47778         2.07530         1.68787
C          1.48722         3.46060         1.85278
C          2.67239         1.37393         1.55748
C          2.70465         4.17925         1.93277
C          1.53690         6.37164         2.20394
C          1.53362         7.76094         2.19133
C          2.72338         5.63460         2.06749
C          2.73617         8.50095         2.07711
C          1.46421        10.64741         1.79753
C          1.40985        12.00466         1.54735
C          2.70155         9.96022         1.90032
C          2.58461        12.76706         1.34592
C          1.31050        14.90778         1.11471
C          1.26006        16.28034         0.93409
C          2.53961        14.19990         1.13193
C          2.44873        17.01385         0.73180
C          2.44174        18.46846         0.57450
C          3.90626         2.06469         1.60607
C          3.91742         3.46849         1.81903
C          5.13373         1.37120         1.36371
C          5.23926         4.14989         2.07241
C          3.97391         6.34854         2.00617
C          3.95342         7.78875         2.04410
C          5.18738         5.63987         1.88683
C          5.21980         8.54118         2.12160
C          3.88475        10.70246         1.71616
C          3.84167        12.09676         1.40398
C          5.18546        10.03327         1.93609
C          5.05228        12.84426         1.21152
C          3.75281        14.92639         0.95309
C          3.67413        16.32576         0.73795
C          5.03202        14.23209         0.97719
C          4.89974        17.11885         0.52993
C          3.53408        19.16049         0.18737
C          4.78442        18.42500        -0.23777
C          6.33705         2.05699         1.15959
C          6.40465         3.49200         1.36418
C          7.48497         1.35793         0.70524
C          7.55465         4.19294         1.04256
C          6.48449         6.32998         1.79831
C          6.52491         7.83900         1.87611
C          7.63430         5.64080         1.18140
C          7.63115         8.54975         1.20243
C          6.41387        10.68876         1.43557
C          6.35390        12.17006         1.38794
C          7.53618         9.98411         1.05322
C          7.62482        12.92630         1.12273
C          6.25480        14.93518         0.67132
C          6.19752        16.39621         0.45640
C          7.50391        14.29496         0.57951
C          7.28916        17.07064        -0.30248
C          6.06992        19.21318        -0.18089
C          7.28809        18.56218        -0.31179
C          8.66266         2.03326         0.35510
C          8.70274         3.48905         0.48414
C          9.82453         1.32756        -0.01820
C          9.82721         4.18403         0.11779
C          8.76107         6.36886         0.82246
C          8.77195         7.82282         0.79773
C         10.04334         5.60440         0.58356
C          9.95514         8.52443         0.33142
C          8.64936        10.73389         0.33698
C          8.91884        12.12291         0.96374
C          9.94639         9.95439         0.23467
C          9.98622        12.85922         0.17760
C          8.66995        14.94123         0.07090
C          8.57538        16.32416        -0.44243
C          9.90113        14.25747        -0.08139
C          9.80814        17.10056        -0.63182
C          8.52829        19.22724        -0.48519
C          9.76126        18.53258        -0.66475
C         11.00257         1.99566        -0.44295
C         10.91250         3.47290        -0.59544
C         12.19441         1.31721        -0.65084
C         12.13855         4.24649        -0.99020
C         11.12992         6.36571        -0.13813
C         11.12922         7.79071        -0.05290
C         12.24064         5.68378        -0.63906
C         12.31821         8.48110        -0.44016
C         11.10633        10.68036        -0.04474
C         11.12204        12.12399        -0.17654
C         12.36573         9.94588        -0.23186
C         12.28082        12.82998        -0.69056
C         11.05195        14.94920        -0.63910
C         11.01252        16.40338        -0.80818
C         12.21678        14.24907        -0.90877
C         12.18589        17.12544        -1.12992
C         10.98160        19.23359        -0.81613
C         12.19778        18.55156        -1.04135
C         13.41382         1.95518        -1.15179
C         13.39009         3.50774        -1.34016
C         14.72483         1.35219        -0.98945
C         14.67921         4.22302        -1.31006
C         13.45815         6.36581        -0.95922
C         13.45400         7.78813        -0.86801
C         14.66661         5.66032        -1.26040
C         14.65171         8.50576        -1.36126
C         13.56697        10.71858        -0.67577
C         13.48076        12.16020        -0.94477
C         14.68205         9.99460        -1.34329
C         14.71153        12.85021        -1.24104
C         13.36130        14.88931        -1.67667
C         13.38678        16.41324        -1.58862
C         14.71260        14.25028        -1.39474
C         14.69838        17.17064        -1.56345
C         13.44585        19.25635        -1.07199
C         14.67718        18.60412        -1.18280
C         15.90463         2.05103        -1.29560
C         15.85750         3.49272        -1.47051
C         17.15616         1.36647        -1.24787
C         17.10716         4.21201        -1.78213
C         15.91542         6.37911        -1.42114
C         15.93829         7.79652        -1.43365
C         17.13521         5.68419        -1.62834
C         17.15012         8.52086        -1.52186
C         15.97362        10.69755        -1.33236
C         15.94870        12.11940        -1.24873
C         17.16573         9.97399        -1.42491
C         17.17431        12.83072        -1.24743
C         15.94454        14.96534        -1.44559
C         15.97291        16.42357        -1.45575
C         17.15988        14.24570        -1.32330
C         17.14289        17.13856        -1.27935
C         15.91094        19.27594        -1.04534
C         17.14536        18.58534        -1.11521
C         18.41326         2.01474        -1.37047
C         18.40903         3.44621        -1.76067
C         19.62685         1.37803        -1.15623
C         19.67253         4.20367        -1.69053
C         18.34857         6.39095        -1.74627
C         18.37986         7.80964        -1.64280
C         19.60907         5.65016        -1.98599
C         19.63764         8.52875        -1.51426
C         18.41197        10.68357        -1.31536
C         18.41235        12.10201        -1.19232
C         19.63666         9.96110        -1.29332
C         19.63591        12.79592        -0.93568
C         18.45476        14.94359        -1.35285
C         18.45061        16.45670        -1.31378
C         19.66124        14.24145        -0.87818
C         19.65162        17.13897        -0.80389
C         18.37308        19.26240        -1.00913
C         19.62543        18.59176        -0.83576
C         20.90707         2.14462        -0.95097
C         20.86804         3.55468        -1.50023
C         22.18266         1.40388        -1.27448
C         22.11878         4.26633        -1.61952
C         20.91794         6.42165        -1.81731
C         20.84286         7.83708        -1.45473
C         22.15908         5.64991        -1.62009
C         22.06814         8.50097        -0.98900
C         20.85286        10.66073        -1.04693
C         20.82601        12.06114        -0.80669
C         22.10065         9.96507        -0.93826
C         22.03936        12.72360        -0.30934
C         20.79679        14.96376        -0.52408
C         20.79103        16.41118        -0.47461
C         22.01575        14.23593        -0.10059
C         21.98023        17.13546         0.04270
C         20.83216        19.28293        -0.79841
C         22.03852        18.63764        -0.28729
C         23.35652         2.04659        -1.57066
C         23.35182         3.49990        -1.88006
C         24.63524         1.39119        -1.47742
C         24.65435         4.25217        -2.07256
C         23.41986         6.34589        -1.53082
C         23.39395         7.75208        -1.06293
C         24.61792         5.70194        -1.75273
C         24.62656         8.55032        -1.08924
C         23.32420        10.64491        -0.76054
C         23.33528        12.05587        -0.50290
C         24.58317         9.94499        -0.84036
C         24.52779        12.77913        -0.37737
C         23.31683        14.93105        -0.04609
C         23.28440        16.38719         0.40438
C         24.49215        14.21086        -0.09123
C         24.53827        17.14554         0.01947
C         23.34554        19.25879        -0.45397
C         24.54635        18.53013        -0.31684
C         25.85152         2.06355        -1.51507
C         25.98808         3.47717        -2.07550
C         27.04991         1.39138        -1.15606
C         27.14983         4.22467        -1.44612
C         25.87056         6.47529        -1.71895
C         25.85291         7.88488        -1.29940
C         27.20329         5.68636        -1.56083
C         27.06894         8.57255        -1.07536
C         25.80296        10.68286        -0.74048
C         25.78959        12.09374        -0.51070
C         27.04471         9.97650        -0.81080
C         27.02499        12.80643        -0.43187
C         25.79255        14.87478         0.17463
C         25.80290        16.46266         0.21053
C         27.04857        14.21451        -0.18861
C         27.06332        17.11390        -0.12171
C         25.80459        19.19707        -0.46698
C         27.04404        18.52922        -0.36748
C         28.26297         2.07471        -0.95733
C         28.26735         3.53566        -1.01065
C         29.46286         1.39345        -0.65866
C         29.47514         4.24056        -0.64068
C         28.33053         6.41589        -0.98359
C         28.29603         7.83307        -0.90385
C         29.48581         5.66630        -0.59107
C         29.45163         8.54081        -0.47872
C         28.26831        10.68087        -0.61966
C         28.26553        12.09870        -0.49752
C         29.48794         9.95075        -0.46528
C         29.50664        12.80253        -0.44349
C         28.26476        14.93714        -0.18972
C         28.27155        16.38467        -0.16568
C         29.51001        14.24260        -0.36352
C         29.50703        17.09469        -0.27618
C         28.27641        19.22229        -0.44924
C         29.50662        18.53630        -0.33275
C         30.68158         2.06823        -0.43178
C         30.68047         3.53074        -0.38959
C         31.87839         1.35939        -0.19783
C         31.87220         4.22759        -0.11234
C         30.65656         6.33936        -0.15677
C         30.60219         7.79080         0.02679
C         31.86638         5.64222         0.05946
C         31.90839         8.54650         0.24240
C         30.73488        10.66257        -0.35781
C         30.72207        12.06971        -0.48466
C         31.96919         9.96440        -0.13116
C         31.99443        12.76716        -0.71295
C         30.72226        14.96554        -0.42730
C         30.74173        16.38908        -0.32541
C         31.98625        14.26029        -0.69413
C         31.98001        17.10730        -0.21361
C         30.73668        19.23145        -0.28726
C         31.96830        18.54636        -0.15410
C         33.12520         2.01100        -0.03543
C         33.18719         3.50507        -0.25666
C         34.32247         1.33756         0.17692
C         34.31635         4.13794         0.52359
C         33.08880         6.37744         0.33225
C         33.15048         7.76404         0.30249
C         34.30692         5.63394         0.69218
C         34.38856         8.48383         0.45625
C         33.21485        10.60045        -0.08231
C         33.30863        12.01621        -0.47683
C         34.40628         9.89846         0.30430
C         34.51466        12.78222        -0.08091
C         33.29548        14.97804        -0.38420
C         33.21718        16.42152        -0.05135
C         34.47613        14.17591        -0.01454
C         34.38654        17.13213         0.22866
C         33.18630        19.25077         0.00430
C         34.40565        18.56781         0.20833
C         35.58623         2.02225         0.32841
C         35.61002         3.44434         0.46599
C         36.79051         1.31367         0.47004
C         36.81333         4.15868         0.64865
C         35.58962         6.34504         0.77773
C         35.59705         7.76562         0.72353
C         36.80598         5.61429         0.83614
C         36.80733         8.49402         0.96589
C         35.63565        10.62436         0.48557
C         35.67497        12.04995         0.34808
C         36.80298         9.90295         0.87939
C         36.91573        12.76935         0.54796
C         35.64532        14.88696         0.51850
C         35.61819        16.41185         0.58569
C         36.94374        14.18583         0.49232
C         36.88658        17.12431         0.51271
C         35.64168        19.24118         0.38822
C         36.87869        18.54304         0.47875
C         38.01623         1.99918         0.64258
C         38.02654         3.42468         0.64615
C         39.24966         1.29030         0.81581
C         39.31620         4.11107         0.68597
C         38.00525         6.31930         1.09386
C         38.01595         7.74518         1.27118
C         39.29781         5.63314         0.97699
C         39.22113         8.41193         1.54661
C         38.02726        10.65645         1.21312
C         38.12358        12.08686         0.83979
C         39.26999         9.88467         1.54593
C         39.33995        12.78645         0.94242
C         38.16055        14.89612         0.55260
C         38.13701        16.37452         0.37646
C         39.37767        14.19205         0.73315
C         39.44012        17.17168         0.48593
C         38.09896        19.24944         0.72637
C         39.32042        18.58852         0.90441
C         40.44859         1.95028         1.03919
C         40.52730         3.35904         1.00942
C         41.73466         4.08349         1.25838
C         40.49083         6.17826         1.67551
C         40.42079         7.70272         1.99374
C         41.74265         5.42113         1.56421
C         41.65950         8.47875         2.21282
C         40.60454        10.54687         1.37407
C         40.62054        12.03519         1.14012
C         41.75254         9.79387         1.94255
C         41.79632        12.83237         1.55361
C         40.68584        14.90207         0.80030
C         40.72565        16.43577         0.73938
C         41.80825        14.16816         1.43329
C         41.80333        17.19499         1.38769
C         40.44110        19.22399         1.47682
C         41.64288        18.52047         1.71822
O          5.29940         9.44522         3.28272
O         34.01803         4.69640         1.82752
O         18.68619        15.73083        -2.57632
O         25.86437        15.60840         1.40513
O         13.42346        10.35251         0.74239
O         40.86919        11.07884         0.03254
O         21.70047        18.09411         1.09426
O         11.06902         3.99084        -1.96982
O         20.34304         6.12253        -3.14899
O         35.43584        15.57658         1.81134
O         22.66237         7.86367         0.21370
O          7.60243        16.44805        -1.57784
O         31.00996         8.25525         1.36725
O         40.17721         6.67286         3.01169
O         13.96259        16.96498        -2.82899
O         17.72158         3.71870        -3.03374
O         26.74414         6.21361        -2.85292
O         38.46326        10.47191         2.63234
O         32.80423        14.80464        -1.76846
O         38.87848        16.87015        -0.81127
O         41.12213        15.61009        -0.40435
O         14.34582         9.30931        -2.58866
O          7.12138        12.81709         2.49596
O         13.24780         2.63054        -2.46036
O         23.85727         3.85043        -3.23242
O         39.54191         5.12862        -0.36235
O          5.81231        17.15108         1.66909
O         21.82973        13.31463         1.02435
O          6.91354         7.03514         3.03851
O         32.78175        12.23798        -1.82473
O          9.48621        11.91299         2.27056
H          8.76277        12.06042         2.92708
O         20.98866         2.32901         0.52560
H         20.11032         2.63707         0.83554
O         13.07460        14.55654        -3.06942
H         13.51744        15.24838        -3.61507
O         23.30249        16.29018         1.85851
H         22.88737        17.11922         2.19582
O         33.57366         3.69597        -1.66115
H         32.92699         3.21286        -2.21821
O         26.36671         3.29803        -3.46718
H         25.52704         3.27368        -3.98380
O          8.17701        10.98348        -1.01792
H          8.16988        10.13374        -1.50588
O          4.58822        18.03273        -1.63687
H          4.60897        18.84367        -2.18644
O          5.52809         3.94667         3.51427
H          4.93081         4.53827         4.02027
O         10.63021         5.43348         1.93856
H          9.89113         5.27937         2.56680
H          0.51886         1.54052         1.64389
H          0.52631         3.98654         1.92497
H          2.66658         0.28577         1.40202
H          0.57313         5.85388         2.29540
H          0.56781         8.27500         2.27039
H          0.51758        10.10863         1.93016
H          0.42442        12.48614         1.50293
H          0.36612        14.36698         1.25997
H          0.29207        16.80132         0.94315
H          1.50200        18.99723         0.79685
H          5.10325         0.28314         1.20309
H          3.49182        20.25514         0.07649
H          7.43802         0.26335         0.60449
H          6.03123        20.31372        -0.20384
H          9.81571         0.22794         0.01402
H          8.54064        20.32734        -0.50471
H         12.24047         0.24353        -0.41204
H         10.98222        20.33216        -0.76687
H         14.79014         0.32002        -0.61396
H         13.43288        20.34264        -0.89682
H         17.14378         0.28782        -1.03026
H         15.91371        20.35988        -0.85699
H         19.62749         0.31320        -0.87470
H         18.36620        20.36184        -0.96819
H         22.21084         0.33090        -1.02675
H         20.86622        20.35340        -1.04834
H         24.63707         0.32933        -1.18270
H         23.38870        20.30259        -0.79437
H         27.01146         0.30784        -0.96272
H         25.79961        20.28177        -0.64876
H         29.45546         0.29312        -0.63828
H         28.27457        20.31535        -0.56924
H         31.84290         0.26000        -0.15236
H         30.73228        20.33113        -0.30578
H         34.31940         0.23844         0.23900
H         33.17736        20.35037        -0.00867
H         36.78370         0.21394         0.45704
H         35.65230        20.34043         0.41121
H         39.22724         0.19131         0.80876
H         38.04150        20.32774         0.93606
H         41.36319         1.37012         1.23002
H         42.68034         3.52213         1.29470
H         42.68446         5.90658         1.85582
H         42.52099         7.94388         2.63794
H         42.70890        10.31382         2.09720
H         42.67743        12.31164         1.95436
H         42.70899        14.73049         1.71586
H         42.77378        16.70853         1.55195
H         40.36881        20.28371         1.75781
H         42.48234        19.05946         2.17984
