         404
 CSIRO Nanostructure Databank - Neutral Graphene Oxide Data Set
C          1.30032         2.03167        -0.99485
C          1.26056         3.42846        -0.90538
C          2.49591         1.33976        -0.85075
C          2.42704         4.17570        -0.63227
C          1.26150         6.37223        -0.99249
C          1.31393         7.72847        -1.29223
C          2.43492         5.64760        -0.70915
C          2.53997         8.41142        -1.36785
C          1.36209        10.61606        -1.82211
C          1.35863        11.95243        -1.62946
C          2.62836         9.80977        -1.95092
C          2.58571        12.71966        -1.52581
C          1.40825        14.90652        -1.21581
C          1.44623        16.27447        -1.07662
C          2.59643        14.14230        -1.43378
C          2.67320        16.98906        -1.22053
C          2.73937        18.42621        -1.04547
C          3.69369         2.04697        -0.56708
C          3.63210         3.46552        -0.43026
C          4.93377         1.36669        -0.41053
C          4.84809         4.17827        -0.02349
C          3.65593         6.36939        -0.66525
C          3.72249         7.73153        -1.02926
C          4.86864         5.69823        -0.16715
C          5.07247         8.38593        -1.29419
C          3.84595        10.57381        -1.47953
C          3.81258        12.00912        -1.49131
C          5.03153         9.89944        -1.20552
C          5.04738        12.72707        -1.47864
C          3.84397        14.84615        -1.57032
C          3.83892        16.27420        -1.51169
C          5.06279        14.12284        -1.66203
C          5.07802        17.02239        -1.79940
C          3.91802        19.11440        -1.10989
C          5.16044        18.45711        -1.43132
C          6.14872         2.05234        -0.16590
C          6.13584         3.48029        -0.01396
C          7.38151         1.37112        -0.05000
C          7.31832         4.20681         0.19609
C          6.17654         6.36824        -0.20700
C          6.23103         7.77480        -0.52600
C          7.30920         5.65088         0.15928
C          7.39110         8.49813        -0.27861
C          6.24593        10.62551        -0.99179
C          6.27274        12.02327        -1.20978
C          7.44406         9.93487        -0.54285
C          7.47004        12.78433        -1.00971
C          6.38011        14.74603        -2.10199
C          6.33719        16.27434        -2.07854
C          7.57756        14.13602        -1.38487
C          7.64173        17.01359        -2.01960
C          6.37182        19.11597        -1.44273
C          7.63599        18.46173        -1.67236
C          8.58114         2.07189         0.20633
C          8.56508         3.50061         0.32621
C          9.82005         1.37790         0.29020
C          9.79571         4.19619         0.51167
C          8.52665         6.39158         0.63408
C          8.59332         7.83529         0.19278
C          9.82153         5.63752         0.49469
C          9.77730         8.52490         0.36401
C          8.57267        10.65471        -0.21184
C          8.58003        12.11894        -0.32139
C          9.72113        10.02504         0.53692
C          9.89197        12.86562        -0.18207
C          8.81876        14.82547        -1.31918
C          8.90185        16.22949        -1.80923
C          9.99153        14.21188        -0.78551
C         10.16797        17.00934        -1.60004
C          8.82351        19.12519        -1.42365
C         10.10570        18.47098        -1.36920
C         11.02833         2.02399         0.56955
C         11.00441         3.46906         0.70745
C         12.25545         1.23760         0.48635
C         12.21619         4.23040         0.83979
C         11.01476         6.35196         0.47576
C         11.03494         7.80675         0.48201
C         12.26902         5.64792         0.55326
C         12.24951         8.48062         0.53835
C         11.04531        10.72868         0.33877
C         11.12810        12.07445         0.04960
C         12.25828         9.95633         0.66877
C         12.38803        12.79133         0.03812
C         11.24890        14.85308        -0.74072
C         11.38865        16.26725        -1.13926
C         12.41892        14.19146        -0.25226
C         12.52283        17.04477        -0.62450
C         11.26165        19.14450        -1.02277
C         12.50079        18.46708        -0.70358
C         13.42680         1.56330         1.14513
C         13.36588         3.65319         1.37245
C         14.78103         1.15097         0.91803
C         14.69291         4.12132         1.02991
C         13.49043         6.33136         0.56151
C         13.52469         7.77922         0.55714
C         14.74562         5.55953         0.55023
C         14.73966         8.46124         0.56919
C         13.56648        10.67621         0.64608
C         13.59174        12.12082         0.34063
C         14.82110         9.93092         0.26883
C         14.81756        12.79721         0.46141
C         13.63957        14.91134        -0.07494
C         13.66831        16.34952        -0.18230
C         14.82995        14.22566         0.32093
C         14.85591        17.07735         0.10143
C         13.67033        19.18009        -0.38236
C         14.87037        18.50685        -0.02239
C         15.92382         1.91981         1.21024
C         15.88464         3.39780         1.62339
C         17.19381         1.31584         1.11689
C         17.19274         4.14521         1.36873
C         16.06350         6.25683         0.62151
C         16.04244         7.75884         0.58108
C         17.23923         5.55142         1.16758
C         17.25293         8.46947         1.02503
C         16.04177        10.63042         0.82166
C         16.02612        12.06731         0.83611
C         17.21451         9.89952         1.12074
C         17.14601        12.78234         1.27303
C         16.00280        14.95660         0.61724
C         16.05169        16.38001         0.46259
C         17.13355        14.25266         1.24459
C         17.26139        17.10012         0.60343
C         16.08085        19.20665         0.20607
C         17.29232        18.52215         0.48140
C         18.40440         2.00900         1.36353
C         18.38637         3.43503         1.52886
C         19.64989         1.34081         1.23595
C         19.63617         4.15363         1.82656
C         18.45810         6.28758         1.30621
C         18.44170         7.74276         1.24729
C         19.67031         5.61757         1.62322
C         19.66503         8.46013         1.45576
C         18.43227        10.59538         1.41247
C         18.37006        12.05942         1.65597
C         19.63453         9.89090         1.47701
C         19.65763        12.83766         1.81743
C         18.43260        15.02287         1.38000
C         18.55043        16.33134         0.63434
C         19.70342        14.29664         1.58018
C         19.76196        17.11745         1.06151
C         18.53066        19.21568         0.62526
C         19.74917        18.54280         0.92840
C         20.90100         1.94152         1.41999
C         20.94533         3.35486         1.92400
C         22.04223         1.22447         0.93745
C         22.18930         4.18069         1.85173
C         20.90570         6.32936         1.69166
C         20.90179         7.76395         1.60204
C         22.15191         5.62488         1.79327
C         22.14376         8.48558         1.68492
C         20.91693        10.61948         1.38010
C         20.93610        12.13407         1.49582
C         22.17636         9.91477         1.59126
C         22.18662        12.82655         1.78283
C         20.88547        14.98073         1.63466
C         20.93228        16.42582         1.42212
C         22.11046        14.28282         2.18297
C         22.16756        17.12348         1.54618
C         20.97083        19.23553         1.09664
C         22.18310        18.54520         1.34490
C         23.35467         1.51294         1.33008
C         23.40525         3.56904         2.07223
C         24.57610         1.21604         0.69978
C         24.70289         4.19627         1.86779
C         23.38270         6.35449         1.85051
C         23.35886         7.77174         1.82491
C         24.65846         5.66664         1.73111
C         24.61404         8.53025         1.90111
C         23.37996        10.66446         1.63285
C         23.38583        12.11805         1.72672
C         24.62156         9.98547         1.70020
C         24.64088        12.80110         1.88846
C         23.39347        15.02134         1.92358
C         23.40838        16.40522         1.76121
C         24.63045        14.25779         2.14287
C         24.66645        17.12420         1.68880
C         23.42268        19.23432         1.35277
C         24.65531        18.55067         1.47377
C         25.78874         1.95450         0.83907
C         25.90002         3.36772         1.33808
C         26.95754         1.39273         0.30644
C         27.02374         4.16205         0.76550
C         25.81100         6.33704         1.38027
C         25.91659         7.77762         1.59958
C         26.91511         5.62682         0.70969
C         27.07680         8.54859         1.11179
C         25.85177        10.67981         1.63711
C         25.85897        12.11899         1.75926
C         27.07197         9.98344         1.33885
C         27.12337        12.82592         1.73966
C         25.94766        15.01285         2.09416
C         25.90041        16.45157         1.77630
C         27.19137        14.26272         1.82907
C         27.12928        17.13229         1.57395
C         25.88197        19.24141         1.36591
C         27.11938        18.55850         1.39258
C         28.18162         2.10225         0.14948
C         28.16426         3.55170         0.27328
C         29.36867         1.45276        -0.19149
C         29.36425         4.31002        -0.06232
C         28.12416         6.43558         0.28688
C         28.16136         7.88461         0.57966
C         29.38603         5.72120         0.03021
C         29.36371         8.61564         0.15353
C         28.26646        10.71426         1.21173
C         28.30135        12.10421         1.48934
C         29.44057        10.08564         0.57652
C         29.61205        12.77545         1.63448
C         28.39052        14.96792         1.66761
C         28.37572        16.42049         1.57759
C         29.65839        14.25852         1.58896
C         29.57719        17.13545         1.43385
C         28.34517        19.24420         1.21920
C         29.57340        18.55580         1.21722
C         30.57593         2.17099        -0.42036
C         30.56339         3.61765        -0.39233
C         31.78057         1.49803        -0.65842
C         31.74453         4.34582        -0.71203
C         30.58188         6.45314        -0.21247
C         30.61846         7.90014        -0.11939
C         31.73643         5.76206        -0.63879
C         31.79515         8.63788        -0.31590
C         30.77542        10.66739         0.69317
C         30.87858        11.98677         1.36123
C         31.85344        10.02522         0.10661
C         32.17015        12.72844         1.25040
C         30.85067        14.94314         1.45976
C         30.86197        16.41926         1.48681
C         32.17109        14.27479         1.36865
C         32.12592        17.15734         1.06581
C         30.78158        19.24539         0.89431
C         32.00402        18.58843         0.69762
C         32.98546         2.19841        -0.91770
C         32.96951         3.63798        -1.01827
C         34.19925         1.51150        -1.09515
C         34.14796         4.32295        -1.35275
C         32.86645         6.53996        -1.18556
C         32.99577         7.97972        -0.83683
C         34.09778         5.77002        -1.63723
C         34.19675         8.64043        -0.99685
C         33.11070        10.78143        -0.09747
C         33.29047        12.08711         0.57875
C         34.30614        10.08400        -0.68829
C         34.48212        12.77350         0.43984
C         33.32433        14.96074         0.75647
C         33.28356        16.39284         0.53648
C         34.47486        14.21400         0.47710
C         34.33190        17.08633        -0.04894
C         33.14799        19.25028         0.22746
C         34.34952        18.54761        -0.08716
C         35.40131         2.19114        -1.37191
C         35.38918         3.63323        -1.52283
C         36.61558         1.46566        -1.47005
C         36.58081         4.32803        -1.84910
C         35.38418         6.50937        -1.84907
C         35.42302         8.00690        -1.55159
C         36.65418         5.76056        -1.86589
C         36.75010         8.62613        -1.33285
C         35.64695        10.67649        -0.50377
C         35.75350        11.94688         0.30821
C         36.80293         9.99100        -0.84411
C         36.99587        12.75861        -0.01143
C         35.59354        14.88555        -0.22177
C         35.49590        16.34066        -0.56904
C         36.93963        14.24761        -0.17248
C         36.75500        17.06749        -0.95524
C         35.50975        19.24511        -0.40854
C         36.74730        18.59444        -0.85555
C         37.81313         2.09678        -1.81015
C         37.77556         3.52865        -2.16119
C         39.05201         1.41452        -1.85905
C         39.11056         4.26135        -2.32553
C         37.86178         6.48589        -1.94353
C         37.91902         7.90042        -1.62113
C         39.11928         5.76255        -2.24647
C         39.22091         8.56326        -1.46783
C         38.09178        10.68080        -0.82758
C         38.17082        12.05260        -0.54696
C         39.27988         9.96414        -1.17509
C         39.35653        12.80651        -0.80884
C         38.11520        14.96944        -0.70206
C         38.05774        16.35967        -0.90569
C         39.33856        14.25018        -0.85091
C         39.25592        17.10258        -1.09460
C         38.04363        19.24862        -0.77645
C         39.23097        18.55017        -1.03145
C         40.26301         2.10294        -1.93190
C         40.32528         3.50530        -2.01019
C         41.52292         4.20963        -1.65993
C         40.44948         6.43001        -1.97682
C         40.43734         7.86109        -1.58478
C         41.58993         5.57048        -1.61118
C         41.66929         8.53950        -1.46832
C         40.52818        10.65876        -1.17642
C         40.55462        12.10274        -1.09571
C         41.72002         9.91078        -1.30705
C         41.73674        12.85029        -1.34623
C         40.53180        14.96804        -1.14855
C         40.50677        16.41733        -1.19288
C         41.72513        14.23017        -1.36761
C         41.69260        17.17603        -1.30847
C         40.46732        19.25756        -1.11513
C         41.66329        18.57635        -1.27321
O         20.92163        11.49280         0.17275
O         38.35917         3.78983        -3.48168
O         37.27507        13.65115         1.13463
O          8.43224        16.55471        -3.16794
O         27.06320         6.11588        -0.69219
O         13.26377         2.53491         2.18143
O         14.78115         4.43720        -0.39739
O         33.42519        10.91827        -1.54421
O          8.95743        12.80182         0.96168
O         33.08040         6.17920        -2.59688
O         11.17138        16.57515        -2.57634
O         30.35057        12.08379         2.71882
O         12.95959        10.37039         1.92793
O         20.18019         3.66031         3.12119
O          4.63928         5.05982         1.13859
O         23.44541         2.26466         2.52780
O          5.53708        16.77745        -3.20338
O         36.57728        17.85828        -2.15099
O         39.92901         6.29871        -3.34948
O         18.93987        12.40484         3.00034
O         32.53441        13.41064         2.48149
O         25.52854         8.12629         2.97160
O         35.18800        15.30306        -1.57133
O         17.54358        14.95721         2.50617
O         16.33505         6.96368        -0.64586
O         25.73779         3.65203         2.76184
O         35.28030         7.49131        -2.91722
O         31.83322        16.93012         2.48180
O         29.10953         9.69062        -0.80587
O         25.33129        14.65845         3.38677
O         18.81579        15.92102        -0.76096
H         18.92373        16.73774        -1.29364
O          6.53081        14.35412        -3.49656
H          6.16516        15.09004        -4.03899
O          5.33704         8.09369        -2.70964
H          4.58474         8.48432        -3.21859
O          2.85950         9.57945        -3.39517
H          2.91129        10.46005        -3.82554
O          9.40527        10.23365         1.96004
H          9.28026        11.20819         2.07074
O         15.70254         3.46870         3.06196
H         16.41424         2.94552         3.48726
O         35.96951        11.44481         1.67301
H         36.33945        12.19851         2.18873
O          8.32232         6.47804         2.10052
H          7.51291         7.01051         2.25586
O         21.94348        14.32074         3.64509
H         22.81560        14.12528         4.05178
O         14.90283        10.05092        -1.19404
H         15.59831         9.43148        -1.50484
H          0.37297         1.48060        -1.20484
H          0.29937         3.93553        -1.06223
H          2.52323         0.24539        -0.94892
H          0.28496         5.87050        -1.00469
H          0.37466         8.24376        -1.53153
H          0.40043        10.10468        -1.96836
H          0.39570        12.48172        -1.59431
H          0.44520        14.38921        -1.10805
H          0.52372        16.83365        -0.86447
H          1.80661        18.96030        -0.81245
H          4.95029         0.27032        -0.50088
H          3.93496        20.19792        -0.92121
H          7.40786         0.27697        -0.15967
H          6.39522        20.18759        -1.19017
H          9.81822         0.28821         0.13879
H          8.78518        20.19469        -1.16389
H         12.24490         0.36907        -0.18946
H         11.23096        20.23897        -0.90888
H         14.94522         0.15994         0.46473
H         13.66980        20.27853        -0.44430
H         17.24994         0.24537         0.86673
H         16.09184        20.30333         0.11672
H         19.62763         0.28839         0.91521
H         18.54017        20.31060         0.52517
H         21.86725         0.41589         0.21148
H         20.99287        20.32879         0.97746
H         24.59326         0.37879        -0.01539
H         23.42956        20.32305         1.19388
H         26.93401         0.33487         0.00383
H         25.87381        20.33248         1.22531
H         29.38233         0.35559        -0.26959
H         28.33504        20.33110         1.05176
H         31.79827         0.39830        -0.63707
H         30.72084        20.32265         0.67911
H         34.21342         0.41468        -1.01292
H         33.11415        20.33791         0.06775
H         36.60846         0.38446        -1.26689
H         35.50877        20.34211        -0.32404
H         39.05947         0.32430        -1.71707
H         38.08682        20.32050        -0.53342
H         41.20207         1.54182        -1.81521
H         42.40233         3.61494        -1.37087
H         42.50548         6.04271        -1.22895
H         42.60920         7.98205        -1.57445
H         42.69783        10.40842        -1.27766
H         42.67925        12.33042        -1.56343
H         42.66123        14.75705        -1.59513
H         42.66484        16.67436        -1.39917
H         40.45625        20.35545        -1.06355
H         42.60556        19.13635        -1.35186
