         200
 CSIRO Nanostructure Databank - Neutral Graphene Oxide Data Set
C        -11.06733         0.70249        -0.44617
C         -9.88735         1.47258        -0.18940
C         -8.71446         0.78261         0.36931
C         -7.41679         1.46958         0.36393
C         -6.21664         0.75091         0.59189
C         -4.97373         1.46206         0.69723
C         -3.76472         0.75023         0.86940
C         -2.49523         1.49280         1.20020
C         -1.24864         0.73607         0.78047
C         -0.04831         1.47946         0.26307
C          1.26430         0.75371         0.40301
C          2.46310         1.48748         0.28426
C          3.70765         0.79840         0.17992
C          4.93066         1.51943         0.03137
C          6.15838         0.81569        -0.08425
C          7.38554         1.53647        -0.22468
C          8.61677         0.82724        -0.33164
C          9.84032         1.55480        -0.46291
C         11.07662         0.81403        -0.54151
C         -9.80583         2.83734        -0.44415
C         -8.61035         3.57739        -0.21184
C         -7.40810         2.86948         0.16619
C         -6.18783         3.58134         0.35879
C         -4.98432         2.90110         0.59839
C         -3.71610         3.62266         0.54144
C         -2.50882         2.92368         0.72826
C         -1.25331         3.67870         0.80428
C          0.04877         2.91016         0.73269
C          1.27187         3.65918         0.41077
C          2.46907         2.93946         0.24845
C          3.69154         3.65502         0.10465
C          4.92655         2.95001        -0.00513
C          6.14445         3.66833        -0.15104
C          7.37639         2.96002        -0.26341
C          8.60582         3.68223        -0.42833
C          9.81978         2.95668        -0.51676
C         -8.57865         4.97699        -0.43011
C         -7.42196         5.74314        -0.21148
C         -6.24139         5.04874         0.32880
C         -4.88544         5.80584         0.23801
C         -3.68333         4.99684         0.20478
C         -2.40984         5.58623        -0.33901
C         -1.19744         5.07988         0.37936
C         -0.01735         5.78349         0.29488
C          1.25515         5.07811         0.40657
C          2.46518         5.78129         0.27269
C          3.68501         5.08372         0.11990
C          4.91742         5.80475        -0.06158
C          6.12994         5.10071        -0.20498
C          7.36652         5.81561        -0.41939
C          8.57097         5.10012        -0.51370
C         -7.35596         7.14652        -0.41468
C         -6.13866         7.85790        -0.49318
C         -4.90835         7.11667        -0.41827
C         -3.68422         7.61401        -0.87595
C         -2.43205         7.08428        -0.48018
C         -1.27113         7.87892        -0.35245
C         -0.02019         7.21105        -0.03954
C          1.16921         7.92739         0.03063
C          2.45502         7.27182         0.47092
C          3.68997         7.95287        -0.06062
C          4.89159         7.24231        -0.17705
C          6.12340         7.94279        -0.45662
C          7.32223         7.23608        -0.54836
C         -6.15456         9.31090        -0.49966
C         -5.08255        10.17009        -0.43009
C         -3.72928         9.75548        -0.72532
C         -2.51399        10.12615        -0.19839
C         -1.29402         9.33583        -0.32467
C         -0.07132        10.01754        -0.23299
C          1.17425         9.34776        -0.15643
C          2.41173        10.04327        -0.24160
C          3.64594         9.36463        -0.26694
C          4.88272        10.05137        -0.53435
C          6.06762         9.37270        -0.61368
C        -11.06266        -0.67357        -0.45259
C         -9.87670        -1.44221        -0.20758
C         -8.70676        -0.76248         0.37365
C         -7.41046        -1.44101         0.39330
C         -6.20491        -0.69138         0.63534
C         -4.97509        -1.37355         0.76464
C         -3.74207        -0.67018         0.87750
C         -2.47941        -1.37962         0.93092
C         -1.24511        -0.65329         0.78537
C          0.01474        -1.38975         0.65959
C          1.26597        -0.66212         0.48658
C          2.49772        -1.35345         0.34647
C          3.71753        -0.62640         0.16013
C          4.94421        -1.31829        -0.01385
C          6.15897        -0.61525        -0.10437
C          7.41292        -1.32350        -0.21077
C          8.62441        -0.60369        -0.30262
C          9.87653        -1.31480        -0.36879
C         11.09398        -0.54939        -0.48907
C         -9.77490        -2.78421        -0.54047
C         -8.55630        -3.50883        -0.36551
C         -7.37248        -2.82253         0.09103
C         -6.15261        -3.55367         0.23591
C         -5.00382        -2.86788         0.95140
C         -3.66356        -3.50553         0.73202
C         -2.46561        -2.81333         0.84655
C         -1.18998        -3.54432         0.84495
C          0.02980        -2.77499         0.81439
C          1.33335        -3.46958         0.95475
C          2.55092        -2.78667         0.48550
C          3.72229        -3.50033         0.29031
C          4.90672        -2.79047        -0.31344
C          6.22121        -3.48677        -0.09041
C          7.42755        -2.75707        -0.17064
C          8.68351        -3.45830        -0.21157
C          9.89000        -2.70728        -0.31513
C         -8.49207        -4.88696        -0.65330
C         -7.28902        -5.60408        -0.52410
C         -6.11343        -4.90282        -0.08915
C         -4.83594        -5.64435        -0.06061
C         -3.60900        -4.93206         0.37882
C         -2.43013        -5.70193         0.87128
C         -1.16859        -4.94262         0.94838
C          0.07104        -5.71580         1.13125
C          1.37798        -4.98074         1.06987
C          2.59590        -5.68311         0.62651
C          3.76382        -4.94049         0.36841
C          5.00258        -5.62646         0.09859
C          6.23209        -4.89386        -0.03326
C          7.48214        -5.59967        -0.12788
C          8.68335        -4.86855        -0.20528
C         -7.21691        -7.01002        -0.78968
C         -6.05097        -7.75640        -0.60956
C         -4.84232        -7.12059        -0.14941
C         -3.65998        -7.82815        -0.00952
C         -2.44414        -7.20837         0.57985
C         -1.16240        -7.88352         0.38573
C          0.08105        -7.22438         0.79114
C          1.35830        -7.83537         0.37387
C          2.57177        -7.09884         0.37896
C          3.79554        -7.76617         0.05779
C          5.01829        -7.03587         0.00562
C          6.26759        -7.73178        -0.19375
C          7.46430        -7.02369        -0.20827
C         -5.99450        -9.16829        -0.89478
C         -4.81712        -9.85669        -0.82242
C         -3.59072        -9.21106        -0.41902
C         -2.36383        -9.85999        -0.47630
C         -1.12951        -9.19017        -0.15509
C          0.11090        -9.85385        -0.30323
C          1.34508        -9.18772        -0.08050
C          2.58068        -9.85240        -0.31926
C          3.79398        -9.17283        -0.21502
C          5.05664        -9.84447        -0.41924
C          6.23581        -9.16286        -0.37919
O          0.05769        -6.71652         2.18499
O         -2.46341         1.55584         2.67789
H         -1.69119         2.12795         2.91099
O         -0.27009         1.62087        -1.19331
H         -0.27593         0.71938        -1.58035
O         -5.65553         5.70656         1.48042
O          4.67974        -2.87502        -1.78220
H          5.43963        -2.42970        -2.21506
O         -2.28601         5.04953        -1.72122
H         -1.46627         5.42410        -2.10942
O         -3.67877         8.73692        -1.70730
O          2.50588         7.47589         1.93519
H          3.33834         7.06872         2.25678
O         -8.99149         0.01809         1.58069
O          1.54116        -4.13137         2.25645
O         -3.85727        -5.11131        -1.08110
O         -2.69088        -6.65149         1.93588
O         -5.31362        -3.07787         2.38772
H         -4.66902        -2.55143         2.90808
O         -0.48393         3.28617         2.02727
H         12.04889        -1.09299        -0.54301
H         12.01751         1.37571        -0.63890
H         10.76603         3.50651        -0.63198
H          9.51256         5.64859        -0.66671
H          8.25891         7.78158        -0.73878
H          7.00338         9.91517        -0.81413
H          4.85920        11.14214        -0.67489
H          2.39814        11.13426        -0.38651
H         -0.07622        11.11808        -0.24029
H         -2.44857        11.04125         0.41035
H         -5.26798        11.21835        -0.14735
H         -7.15160         9.75508        -0.34233
H         -8.29536         7.69188        -0.59397
H         -9.49676         5.47785        -0.77304
H        -10.69116         3.36914        -0.82479
H        -11.98599         1.23940        -0.72563
H        -11.97643        -1.21375        -0.74142
H        -10.64671        -3.30826        -0.96055
H         -9.40327        -5.41060        -0.97893
H         -8.12735        -7.52043        -1.13906
H         -6.91524        -9.67758        -1.21536
H         -4.78194       -10.92322        -1.08907
H         -2.31761       -10.90475        -0.81731
H          0.12279       -10.89703        -0.65029
H          2.57013       -10.91562        -0.60093
H          5.04743       -10.92997        -0.59648
H          7.18903        -9.69272        -0.52299
H          8.41593        -7.56383        -0.32516
H          9.63895        -5.40805        -0.28594
H         10.84971        -3.24387        -0.36118
