         732
 CSIRO Nanostructure Databank - Neutral Graphene Oxide Data Set
C         22.82939        24.66857        -0.45989
C         21.68202        25.41063        -0.67685
C         22.96034        27.47196        -0.65089
C         21.74850        26.81281        -0.80252
C         23.14391        28.94267        -0.98051
C         21.89154        29.75239        -1.10244
C         22.87244        31.71747        -0.01401
C         21.85077        31.08234        -0.74367
C         22.74923        33.09935         0.45444
C         21.59292        33.93613         0.07286
C         22.75386        36.00003         0.80165
C         21.56882        35.25442         0.32865
C         22.78482        37.52541         0.55621
C         21.64387        38.20922        -0.07555
C         22.99905        40.16802        -0.66956
C         21.78073        39.41598        -0.69472
C         23.11077        41.43956        -1.25763
C         22.02526        42.05870        -1.96547
C         23.30197        44.12516        -2.29972
C         22.11696        43.33387        -2.45470
C         23.39161        45.46628        -2.80329
C         22.31908        46.04831        -3.52854
C         23.57527        48.09204        -3.84299
C         22.40699        47.33627        -4.02545
C         25.34408        23.12780        -0.18417
C         25.31245        24.54938        -0.15034
C         24.08856        25.30238        -0.30485
C         25.36840        27.41794        -0.07296
C         24.14201        26.72889        -0.35072
C         25.34838        28.86318         0.13674
C         24.19721        29.57374        -0.11011
C         25.31807        31.69706         0.67200
C         24.01493        30.91401         0.54780
C         25.30378        33.05278         0.85610
C         24.02931        33.81432         0.89960
C         25.24505        35.99803         0.81713
C         24.05690        35.29760         0.84239
C         25.26248        37.44278         0.63218
C         24.10762        38.15616         0.41614
C         25.45743        40.23136        -0.11764
C         24.10531        39.66219         0.23504
C         25.50546        41.56078        -0.63244
C         24.34234        42.19255        -1.15604
C         25.62196        44.29847        -1.45083
C         24.41970        43.52698        -1.65203
C         25.64502        45.67991        -1.82954
C         24.57964        46.24930        -2.56800
C         25.88808        48.36936        -3.01933
C         24.66802        47.58381        -3.13437
C         26.10974        49.59766        -3.61464
C         27.78226        23.10010         0.01401
C         26.53072        22.43158        -0.09525
C         27.77792        24.52448         0.07156
C         26.54240        25.24162         0.00579
C         27.78163        27.34062         0.40121
C         26.54560        26.67102         0.12956
C         27.73662        28.74508         0.87530
C         26.52721        29.55133         0.64727
C         27.80601        31.65316         1.04994
C         26.55257        30.93476         0.80413
C         27.83158        33.07871         1.12729
C         26.52653        33.81573         1.32430
C         27.84666        35.95096         0.79273
C         26.53799        35.23766         0.78582
C         27.84658        37.43694         0.92174
C         26.55463        38.18194         0.76053
C         27.90276        40.22037         0.12567
C         26.62379        39.57644         0.26179
C         27.94829        41.56400        -0.26623
C         26.75131        42.25962        -0.62288
C         27.96437        44.41179        -0.53195
C         26.76418        43.64597        -0.92052
C         27.99736        45.90739        -0.81297
C         26.79737        46.53483        -1.45940
C         28.31453        48.45276        -2.29147
C         26.94259        47.87774        -2.10635
C         28.41196        49.85989        -2.75190
C         27.30563        50.35988        -3.41203
C         30.27164        20.28464         0.17116
C         29.07822        20.96802         0.10579
C         30.26645        23.11032         0.05803
C         29.03349        22.38978         0.05653
C         30.25209        24.53411         0.10376
C         29.01395        25.24068         0.14312
C         30.25473        27.45787         0.10863
C         28.98957        26.66296         0.31063
C         30.31257        28.79396         0.80616
C         29.03992        29.46806         1.14865
C         30.25566        31.63336         1.43818
C         29.00765        30.93464         1.16361
C         30.28297        33.08593         1.36874
C         29.07491        33.79419         1.22785
C         30.30231        35.95854         1.14230
C         29.11050        35.24336         1.12736
C         30.36066        37.39287         0.91394
C         29.13246        38.13931         0.72116
C         30.38791        40.22569         0.45659
C         29.13463        39.49104         0.41364
C         30.41892        41.55768         0.17490
C         29.27493        42.23474        -0.53218
C         30.37303        44.47801        -0.09924
C         29.24072        43.73159        -0.33542
C         30.41442        45.89854        -0.35982
C         29.31313        46.54704        -0.87330
C         30.71126        48.59963        -1.41018
C         29.48069        47.81100        -1.62617
C         30.78854        49.94330        -1.92312
C         29.67507        50.56258        -2.57392
C         31.02078        52.58908        -2.87118
C         29.83248        51.89221        -3.03020
C         32.81488        18.89191         0.57949
C         32.75408        20.23796         0.20364
C         31.52369        20.95884         0.12606
C         32.74262        23.11043         0.00391
C         31.52132        22.39720         0.04112
C         32.73933        24.54436         0.05665
C         31.49884        25.26106         0.15751
C         32.73929        27.37444         0.31815
C         31.51622        26.66164         0.26442
C         32.75447        28.78833         0.53189
C         31.51160        29.45690         0.87018
C         32.82507        31.62874         1.10969
C         31.58516        30.85658         1.34978
C         32.83633        33.02283         1.28951
C         31.57451        33.75292         1.57935
C         32.84892        35.95362         1.11438
C         31.58188        35.28571         1.45596
C         32.83948        37.34450         0.91277
C         31.59217        38.05650         0.91904
C         32.90342        40.19795         0.56002
C         31.61591        39.56052         1.05024
C         32.93220        41.56195         0.34690
C         31.66245        42.32172         0.42015
C         32.91557        44.49615        -0.04053
C         31.64641        43.80078         0.26065
C         32.95142        45.85301        -0.21297
C         31.68070        46.67052        -0.05927
C         33.01925        48.70623        -0.61628
C         31.78266        48.00257        -0.77050
C         33.09845        50.07572        -1.03201
C         32.00256        50.67740        -1.72579
C         33.40272        52.70876        -2.09142
C         32.13606        52.01148        -2.22199
C         33.57889        54.04087        -2.53902
C         35.27409        18.86131         0.59810
C         34.02818        18.21356         0.72984
C         35.30248        20.25331         0.25936
C         34.03009        20.91291        -0.23347
C         35.19771        23.08920        -0.13576
C         34.01437        22.41143        -0.04925
C         35.19278        24.55385        -0.47941
C         33.94784        25.26546        -0.03404
C         35.19923        27.39440         0.10113
C         33.96690        26.66552         0.13205
C         35.19904        28.79446         0.28793
C         33.97430        29.49849         0.53425
C         35.25213        31.62453         0.72072
C         34.01382        30.92260         0.76790
C         35.27372        33.03765         0.94396
C         34.05781        33.74912         1.15894
C         35.30088        35.86391         0.97908
C         34.07510        35.19566         1.11254
C         35.37576        37.30269         0.53926
C         34.07899        38.05862         0.67505
C         35.41842        40.10873         0.11427
C         34.11209        39.42647         0.48434
C         35.39071        41.61066         0.24339
C         34.17364        42.26947         0.16325
C         35.47356        44.45623        -0.10567
C         34.14621        43.70326        -0.16085
C         35.43315        45.90999         0.05309
C         34.21230        46.57297        -0.17034
C         35.33244        48.73327         0.29678
C         34.17027        47.99701        -0.19151
C         35.33850        50.23947         0.03092
C         34.30900        50.80798        -0.85060
C         35.88125        52.67842        -1.53987
C         34.49386        52.06963        -1.43243
C         35.88214        54.17734        -1.70547
C         34.75833        54.75959        -2.29333
C         37.75608        16.08350         1.11836
C         36.55606        16.76415         1.01641
C         37.76223        18.85186         0.62794
C         36.52476        18.15360         0.76004
C         37.75743        20.27722         0.42455
C         36.50419        20.94622         0.19128
C         37.70422        23.16646         0.03281
C         36.50078        22.35240        -0.36899
C         37.69652        24.55619        -0.03682
C         36.46255        25.28500        -0.14735
C         37.67473        27.41712        -0.06394
C         36.44244        26.67409        -0.02474
C         37.64032        28.81253        -0.04985
C         36.43319        29.52372         0.21287
C         37.73190        31.63278         0.43245
C         36.46653        30.92536         0.42958
C         37.75212        33.04274         0.74630
C         36.52701        33.73763         0.93884
C         37.77670        35.86907         1.14216
C         36.53311        35.16175         1.03211
C         37.81351        37.31435         1.23090
C         36.50204        38.06182         1.27787
C         37.82756        40.14148         0.78130
C         36.63178        39.48261         0.76939
C         37.93717        41.54808         0.22370
C         36.64044        42.32850         0.29284
C         37.97911        44.46430         0.17223
C         36.67949        43.70318         0.25915
C         37.87079        45.91325         0.61649
C         36.64693        46.60774         0.41451
C         37.77660        48.72444         0.88407
C         36.60129        48.02274         0.56319
C         37.79805        50.20362         0.78578
C         36.62194        50.97220         0.22923
C         38.08396        52.86986        -0.35132
C         36.88262        52.20804        -0.51583
C         38.20854        54.25065        -0.80627
C         37.08387        54.91038        -1.39203
C         38.32240        57.01386        -1.30143
C         37.19004        56.30030        -1.64875
C         40.30796        14.68550         1.38920
C         40.24477        16.00828         1.04608
C         38.99312        16.74507         0.96062
C         40.24714        18.87465         0.61346
C         38.99693        18.14715         0.71838
C         40.21886        20.31138         0.53978
C         38.97265        20.99547         0.44654
C         40.18688        23.22502         0.34315
C         38.90354        22.49467         0.63930
C         40.19787        24.58787         0.11799
C         38.94022        25.31072         0.01768
C         40.15810        27.44598        -0.31376
C         38.92442        26.69545        -0.12753
C         40.11373        28.82099        -0.44138
C         38.83197        29.59729        -0.50644
C         40.17256        31.68743         0.03011
C         38.91619        30.98276         0.08614
C         40.22478        33.08514         0.45655
C         38.98826        33.74869         0.80649
C         40.24664        35.80578         1.47664
C         38.97927        35.13760         1.11688
C         40.25848        37.30614         1.77892
C         39.00471        38.01698         1.31859
C         40.28050        40.13877         1.20530
C         39.05368        39.44835         1.16004
C         40.30634        41.58536         1.09449
C         39.12867        42.31585         0.76793
C         40.30493        44.45098         1.13370
C         39.14166        43.71631         0.76551
C         40.27687        45.88772         1.30390
C         39.01839        46.60548         1.08423
C         40.10933        48.78799         1.77704
C         38.96380        48.02324         1.21655
C         40.13731        50.24801         1.45931
C         39.10491        50.86903         0.73018
C         40.43163        52.90932         0.52739
C         39.19616        52.23217         0.35344
C         40.58720        54.25457        -0.04895
C         39.38569        54.97768        -0.52349
C         40.58881        57.15573        -0.22902
C         39.44346        56.37901        -0.71508
C         40.55427        58.56634        -0.22891
C         42.74079        14.62593         1.35622
C         41.56544        13.96585         1.40948
C         42.73443        16.13838         1.36773
C         41.52346        16.68670         0.58305
C         42.70712        18.92124         0.63439
C         41.47887        18.20212         0.66736
C         42.69766        20.35535         0.55381
C         41.45586        21.02642         0.55221
C         42.74431        23.24809         0.41799
C         41.43309        22.49699         0.61172
C         42.68519        24.64588        -0.02806
C         41.44643        25.31624        -0.06713
C         42.62911        27.39135        -0.58692
C         41.41587        26.71360        -0.35270
C         42.60079        28.84298        -0.86709
C         41.31443        29.60815        -0.74808
C         42.55634        31.84746        -0.77577
C         41.32183        31.05107        -0.41892
C         42.64626        33.18754        -0.06611
C         41.44480        33.77237         0.47155
C         42.78447        35.87551         1.08937
C         41.52743        35.08784         1.14100
C         42.76850        37.25214         1.27283
C         41.54085        38.01024         1.37632
C         42.77479        40.16249         1.24179
C         41.53444        39.41160         1.30598
C         42.77120        41.58653         1.28390
C         41.52412        42.30159         1.25142
C         42.75032        44.44857         1.45166
C         41.52258        43.72936         1.30518
C         42.72337        45.87024         1.59788
C         41.46248        46.56940         1.64510
C         42.76083        48.69481         2.19483
C         41.43986        48.00480         2.05370
C         42.87009        50.08208         2.55999
C         41.12684        51.11396         1.93837
C         42.74559        53.02584         1.57959
C         41.45566        52.35481         1.33782
C         42.84168        54.38227         1.20592
C         41.80215        55.03760         0.37203
C         42.80842        57.26480         0.83066
C         41.72264        56.51178         0.32806
C         42.72507        58.67027         0.83293
C         41.60160        59.30823         0.31105
C         45.21496        16.35829         1.74832
C         44.04912        16.73868         0.86193
C         45.16206        18.94974         0.58440
C         43.96479        18.24810         0.71849
C         45.18138        20.34549         0.30164
C         43.94943        21.06971         0.36480
C         45.15420        23.15927        -0.19447
C         43.96545        22.47229         0.18062
C         45.14188        24.57961        -0.42180
C         43.90790        25.30921        -0.33894
C         45.11705        27.44040        -0.76378
C         43.87498        26.71654        -0.55726
C         45.10978        28.82638        -0.86180
C         43.86722        29.57587        -0.61415
C         45.09910        31.81116        -0.69438
C         43.84076        31.06228        -0.53245
C         45.11365        33.17171        -0.38852
C         43.87094        33.82039         0.04332
C         45.31656        35.85451         0.62886
C         44.00996        35.11655         0.75585
C         45.36169        37.30512         0.97862
C         44.03727        38.01614         1.33243
C         45.24042        40.17948         1.13921
C         44.01313        39.47687         1.21352
C         45.24032        41.60175         1.24589
C         43.99940        42.30702         1.33048
C         45.22495        44.45169         1.50116
C         43.99365        43.73994         1.43343
C         45.21397        45.87445         1.65852
C         43.96056        46.57545         1.71474
C         45.21969        48.66845         2.26231
C         43.94667        47.98790         1.95721
C         45.23500        50.16833         2.47270
C         43.97804        50.90617         2.32883
C         45.17211        53.06543         2.08435
C         43.94125        52.34540         2.07147
C         45.22276        54.46104         1.80085
C         44.02124        55.14489         1.44285
C         45.21815        57.26331         1.44215
C         44.02406        56.56588         1.25395
C         46.37315        17.01747         1.62516
C         47.72723        18.91074         0.43920
C         46.43794        18.19374         0.71482
C         47.68868        20.34542         0.06948
C         46.41061        21.02600        -0.02551
C         47.55834        23.09378        -0.81090
C         46.35912        22.40554        -0.32598
C         47.55432        24.55748        -0.91166
C         46.36512        25.27703        -0.75282
C         47.56653        27.44890        -1.01557
C         46.36457        26.72352        -0.88236
C         47.60352        28.87456        -1.05339
C         46.32243        29.56628        -1.18534
C         47.60557        31.77335        -0.88673
C         46.31490        31.11933        -1.11023
C         47.57451        33.21324        -0.67280
C         46.34371        33.88386        -0.47956
C         47.63416        36.05182        -0.31766
C         46.29455        35.38348        -0.44974
C         47.61978        37.55247        -0.27773
C         46.47050        38.12867         0.50886
C         47.70482        40.23163         0.72659
C         46.46823        39.49172         0.79664
C         47.70225        41.58490         1.10462
C         46.48331        42.30466         1.28339
C         47.68741        44.45638         1.42882
C         46.47753        43.73837         1.43280
C         47.69047        45.88047         1.53898
C         46.45653        46.57854         1.74359
C         47.69819        48.69615         2.06642
C         46.50450        47.99431         1.96828
C         47.72929        50.20026         1.89406
C         46.52075        50.91356         2.45196
C         47.75958        53.09660         2.02375
C         46.48061        52.39995         2.34909
C         47.74312        54.49643         1.87164
C         46.46035        55.19580         1.81495
C         46.41758        56.58551         1.68633
C         50.13896        19.10793         0.89757
C         49.00008        18.38228         0.95612
C         50.16853        20.44686         0.34070
C         48.90082        21.02801        -0.06073
C         50.13873        23.17179        -0.63788
C         48.90882        22.35572        -0.68736
C         50.08821        24.50959        -0.91058
C         48.82976        25.22219        -1.21606
C         50.08053        27.51723        -0.94403
C         48.84629        26.75352        -1.22037
C         50.06287        28.88494        -0.86967
C         48.81038        29.61073        -0.98788
C         50.06492        31.79609        -0.53372
C         48.78991        31.04156        -0.88324
C         50.00760        33.18615        -1.16158
C         48.78501        33.93815        -0.72265
C         50.10879        36.04151        -0.45059
C         48.81590        35.35522        -0.51713
C         50.14317        37.44789        -0.07814
C         48.94366        38.16971         0.09924
C         50.20262        40.21418         0.59789
C         48.94903        39.53545         0.47842
C         50.25159        41.60486         0.95118
C         48.99291        42.24145         1.36000
C         50.22759        44.46332         1.20235
C         48.98218        43.75946         1.51923
C         50.15187        45.92261         1.11331
C         48.91148        46.57932         1.53574
C         50.30115        48.70598         2.05955
C         48.96532        47.95729         2.00504
C         50.30723        50.19616         2.27247
C         48.99754        50.93293         2.30329
C         50.22636        53.07941         1.91815
C         48.98977        52.39730         2.05471
C         50.18049        54.48412         1.75665
C         48.97776        55.17043         1.73005
C         52.66789        20.51896         0.41522
C         51.37682        21.14499         0.19320
C         52.59067        23.20552        -0.40852
C         51.40359        22.52164        -0.27360
C         52.58595        24.53033        -1.13437
C         51.34216        25.29420        -0.76527
C         52.61929        27.49758        -1.01766
C         51.34839        26.78008        -0.75026
C         52.59215        28.89806        -1.05970
C         51.35985        29.61141        -0.55781
C         52.48387        31.76478        -1.25110
C         51.33237        31.06959        -0.91977
C         52.46766        33.22509        -1.23024
C         51.30420        33.92554        -0.97332
C         52.58459        35.97270        -0.35814
C         51.28712        35.33066        -0.65070
C         52.64458        37.42541        -0.13457
C         51.40034        38.12085         0.09445
C         52.68194        40.20325         0.60315
C         51.40805        39.49637         0.41264
C         52.69718        41.67228         0.64407
C         51.45015        42.34069         0.93235
C         52.68527        44.52832         0.94765
C         51.43206        43.78689         1.05244
C         52.70479        45.89441         1.02913
C         51.46087        46.68826         1.06201
C         52.71548        48.79338         1.56454
C         51.51441        48.09441         1.50503
C         52.75580        50.21901         1.76617
C         51.54488        50.94555         1.96073
C         52.73355        53.03363         1.64775
C         51.50005        52.35109         1.87108
C         53.84192        21.17963         0.28775
C         55.05183        23.12968        -0.91586
C         53.91686        22.66267         0.04564
C         55.05276        24.64486        -1.02174
C         53.86805        25.32643        -1.02380
C         55.04709        27.49714        -1.33392
C         53.82638        26.77188        -1.15294
C         54.99226        28.91031        -1.49372
C         53.77630        29.62994        -1.38029
C         54.93067        31.80794        -1.76850
C         53.74050        31.07181        -1.50049
C         54.98411        33.20673        -1.62982
C         53.70877        34.00079        -1.58199
C         55.07063        36.04726        -0.96337
C         53.84560        35.25822        -0.75389
C         55.07497        37.42674        -0.67079
C         53.87069        38.08146        -0.21554
C         55.10831        40.31313        -0.22989
C         53.97791        39.48871         0.21205
C         55.09357        41.70237         0.00075
C         53.90834        42.34800         0.50590
C         55.18554        44.54750         0.51823
C         53.99462        43.76074         1.01917
C         55.21981        45.89447         0.74899
C         53.94928        46.69984         0.78603
C         55.29773        48.79688         1.50139
C         53.98343        48.03171         1.51893
C         55.19701        50.23906         1.24547
C         53.98186        50.92973         1.52422
C         53.92044        52.35593         1.49280
C         57.50810        23.37510        -0.37885
C         56.38472        22.60129        -0.46793
C         57.56316        24.73349        -0.79897
C         56.33716        25.31354        -1.44772
C         57.52135        27.54911        -1.43022
C         56.29758        26.81464        -1.38487
C         57.51370        28.93479        -1.71415
C         56.21553        29.59752        -1.93790
C         57.46448        31.85834        -2.40666
C         56.16243        31.08467        -2.18087
C         57.43576        33.27859        -1.89011
C         56.21930        33.93928        -1.65978
C         57.43950        36.10964        -1.53833
C         56.23539        35.37100        -1.40235
C         57.43569        37.53248        -1.35243
C         56.26201        38.19476        -0.90642
C         57.37388        40.37370        -1.19451
C         56.25663        39.63173        -0.78664
C         57.16321        41.85543        -1.42369
C         56.24062        42.51114        -0.40054
C         57.45346        44.69878        -0.50669
C         56.31232        43.87022        -0.10975
C         57.59688        46.00425        -0.07626
C         56.50648        46.62158         0.70662
C         57.79137        48.91234         0.80384
C         56.56917        48.06038         1.12213
C         57.39791        50.21052         0.14247
C         56.23643        50.84474         0.45755
C         60.00728        24.89739        -0.40938
C         58.77460        25.49303        -0.77599
C         59.98325        27.62090        -1.16047
C         58.77211        26.88108        -1.15303
C         59.96592        29.04052        -1.46698
C         58.72545        29.70138        -1.73550
C         59.91459        31.84420        -1.94474
C         58.71376        31.11095        -1.96624
C         59.89681        33.30225        -2.09041
C         58.66195        34.00078        -1.93128
C         59.86389        36.15920        -2.03418
C         58.65912        35.42706        -1.83550
C         59.82344        37.61255        -2.00609
C         58.61981        38.28656        -1.63663
C         59.73902        40.46732        -1.96039
C         58.57277        39.71800        -1.60429
C         59.72224        41.92249        -1.91938
C         58.44905        42.63405        -1.70642
C         59.85548        44.76905        -1.31867
C         58.53901        44.10533        -1.31496
C         59.93242        46.16728        -0.92072
C         58.79450        46.79448        -0.33324
C         60.06687        48.86784        -0.17211
C         58.87860        48.15997         0.04507
C         61.19307        25.62407        -0.44526
C         61.19053        26.96576        -0.81781
C         61.15505        29.80251        -1.47242
C         61.13241        31.16590        -1.69692
C         61.07032        34.04799        -2.27324
C         61.05166        35.44268        -2.27603
C         60.94790        38.38253        -2.35144
C         60.90257        39.77221        -2.33240
C         60.88356        42.66584        -2.04303
C         60.94452        44.05871        -1.78410
C         61.10805        46.91573        -1.13178
C         61.17234        48.25564        -0.76732
O         50.65383        46.50222        -0.17444
O         22.51147        36.94840         1.87626
O         48.88354        25.97932        -2.47548
O         41.73257        54.39623        -0.96590
O         47.11170        17.98234        -0.57415
O         53.38638        35.17614         0.61720
O         31.60305        43.20468         1.62461
O         49.65178        50.55706         3.53760
O         23.08942        33.27402         1.89792
O         48.19945        22.42430        -1.95751
O         56.93081        47.02991         2.08867
O         45.21140        49.24394         3.61917
O         29.19902        47.56360        -3.07715
O         27.67461        45.40038         0.51980
O         28.27095        28.84699         2.25021
O         55.97005        30.16382        -3.31038
O         49.07279        42.87070         2.68372
O         30.97637        31.09181         2.64143
O         54.73550        48.24149         2.73390
O         45.09891        35.00745         1.77341
O         53.58303        39.64326         1.61958
O         31.61718        34.61678         2.75967
O         41.90827        29.26896        -2.09032
O         34.89571        44.00721        -1.39156
O         46.65575        51.70540         3.65437
O         40.96187        35.05304         2.51930
O         27.25521        35.44139        -0.47521
O         51.39266        25.99736         0.52033
O         43.85211        30.25922         0.71059
O         42.17630        23.04034         1.76913
O         27.13481        37.95944         2.10131
O         34.86425        49.71321         1.29695
O         58.16719        43.68869        -2.69002
O         44.97434        37.56161         2.35889
O         49.81868        48.00683         3.25171
O         26.44914        47.77914        -0.72990
O         40.48091        48.33787         3.10543
O         46.18762        30.40532        -2.38583
O         36.94109        51.01291         1.66257
O         41.76051        50.72045         3.11074
O         53.82038        47.16222        -0.61855
H         53.40495        46.44376        -1.14270
O         38.16652        41.39178        -1.22417
H         38.30356        42.30153        -1.58208
O         38.60485        29.83315        -1.95295
H         38.69696        28.97037        -2.41113
O         38.26833        44.50073        -1.28217
H         37.47021        44.85997        -1.72870
O         31.59535        47.00674         1.36232
H         31.42420        46.17854         1.85993
O         58.37200        49.28202         2.08751
H         58.27219        48.49633         2.67201
O         30.20647        27.81609        -1.33654
H         30.32857        26.98632        -1.84654
O         42.46986        32.10771        -2.20487
H         42.25688        31.24920        -2.64141
O         47.37939        37.98494        -1.70025
H         48.20424        37.80104        -2.20016
O         50.08730        31.95868         0.90583
H         50.37846        31.09521         1.29103
O         23.63791        30.59907         1.93999
H         23.39073        31.46401         2.35479
O         54.24972        23.29431         1.32138
H         53.50484        23.13892         1.93924
O         57.61196        32.02144        -3.85373
H         57.21446        31.21505        -4.26084
O         44.31708        16.18427        -0.45924
H         45.15126        16.58529        -0.79112
O         56.44060        24.93510        -2.90694
H         55.90893        25.59044        -3.40997
O         35.72211        37.21309        -0.86810
H         35.67735        38.12676        -1.25905
O         56.36970        41.89392        -2.65750
H         56.62299        42.73173        -3.11551
O         51.45516        29.58020         0.92683
H         52.37440        29.82467         1.16846
O         36.56909        22.18747        -1.84096
H         35.78082        21.63416        -2.08265
O         26.36568        33.98094         2.76772
H         26.30416        33.09143         3.17588
O         31.57725        39.81576         2.49096
H         31.54468        40.78858         2.62108
O         23.79089        40.21087         1.56102
H         24.42704        39.82765         2.20256
O         54.76380        22.60212        -2.24460
H         55.43433        23.00973        -2.84289
O         40.21014        37.43260         3.23625
H         40.74419        36.68322         3.59288
O         53.49662        34.48931        -2.95563
H         53.52374        33.71338        -3.55545
O         34.08978        20.74452        -1.71368
H         33.98524        19.78561        -1.89707
O         41.64621        16.35475        -0.82379
H         42.60852        16.32104        -1.04846
O         35.62351        39.88578        -1.33867
H         36.46881        40.34700        -1.57445
O         35.15088        24.57367        -1.96240
H         35.78926        23.87742        -2.26283
O         36.39477        52.14310        -2.83203
H         35.85319        52.54793        -3.54371
O         54.26888        43.60948         2.45575
H         53.64328        42.94492         2.81605
O         36.09188        38.11619         2.67379
H         36.85104        38.43860         3.20421
O         42.61570        16.56411         2.74850
H         41.80709        16.15129         3.11908
O         52.46396        24.20482        -2.55157
H         53.16574        23.53275        -2.74518
O         29.53576        42.05850        -1.97656
H         29.49287        41.09788        -2.17082
O         38.72624        22.65366         2.10744
H         39.60756        22.53173         2.52400
O         49.86571        32.96304        -2.60007
H         49.78773        33.83524        -3.03960
O         23.73088        28.93750        -2.34318
H         23.12008        28.43401        -2.92253
O         45.70188        35.82133        -1.72226
H         46.14282        36.67099        -1.98234
O         47.61527        50.40239         0.43837
H         48.26793        49.82731        -0.01478
H         22.75238        23.57452        -0.40483
H         20.71266        24.90418        -0.78221
H         20.82871        27.37454        -1.01715
H         21.05233        29.33498        -1.67783
H         20.95130        31.65755        -1.01045
H         20.69519        33.44792        -0.33159
H         20.64350        35.81659         0.14425
H         20.65243        37.73923        -0.03655
H         20.89746        39.84437        -1.18901
H         21.08264        41.51245        -2.10278
H         21.24187        43.75669        -2.96540
H         21.40050        45.47633        -3.71119
H         23.62062        49.10172        -4.27259
H         21.56412        47.76795        -4.58245
H         24.40921        22.56102        -0.28920
H         25.33805        50.04874        -4.25435
H         26.49621        21.33476        -0.13550
H         27.32784        51.37201        -3.84026
H         30.24582        19.18776         0.21911
H         28.14415        20.39111         0.11562
H         31.08132        53.61234        -3.26549
H         28.99525        52.39495        -3.53330
H         31.89117        18.34520         0.81451
H         32.74642        54.57124        -3.01967
H         33.98792        17.15481         1.01604
H         34.76770        55.82535        -2.56210
H         37.73027        15.00166         1.30356
H         35.62215        16.19856         1.12915
H         38.33910        58.09276        -1.50277
H         36.35348        56.83832        -2.11417
H         39.40044        14.11974         1.64298
H         39.68886        59.10278        -0.63833
H         43.69707        14.08546         1.40688
H         41.53725        12.86920         1.48600
H         43.54117        59.27829         1.24461
H         41.54480        60.40545         0.31732
H         45.11479        15.50831         2.43886
H         45.25045        58.35472         1.32885
H         47.25708        16.73014         2.21339
H         47.34055        57.17641         1.74697
H         51.06848        18.66553         1.27985
H         49.02468        17.35294         1.34011
H         51.10816        55.06139         1.65193
H         49.00389        56.26057         1.60325
H         52.70035        19.44562         0.65005
H         52.75355        54.13052         1.60942
H         54.77899        20.63259         0.46788
H         54.84746        52.92900         1.35476
H         58.42243        22.89869         0.00451
H         56.45776        21.53521        -0.20930
H         58.13024        50.71313        -0.50617
H         56.04868        51.84318         0.03502
H         60.04913        23.83958        -0.11976
H         60.13328        49.91475         0.15427
H         62.13966        25.13583        -0.17529
H         62.14365        27.50935        -0.82335
H         62.12353        29.32261        -1.28283
H         62.07756        31.72385        -1.66563
H         62.03064        33.53894        -2.43269
H         61.99784        35.97576        -2.43856
H         61.88234        37.89446        -2.65774
H         61.80482        40.32201        -2.62945
H         61.83521        42.16405        -2.26211
H         61.92782        44.54102        -1.86486
H         61.98623        46.44712        -1.59480
H         62.09513        48.82779        -0.93450
