         661
 CSIRO Nanostructure Databank - Neutral Graphene Oxide Data Set
C          5.79997        31.82955         0.03222
C          5.85829        33.19099         0.07418
C          8.17479        27.31559        -0.05588
C          8.19655        28.81622         0.21438
C          6.95844        29.62691         0.01746
C          8.27564        31.72373        -0.11128
C          6.98700        30.99199         0.04144
C          8.38382        33.15978         0.36864
C          7.09746        33.94362         0.19474
C          8.46015        36.02308         0.45202
C          7.14098        35.30254         0.23980
C          8.38379        37.51661         0.28173
C         10.65509        23.09738         0.07426
C         10.77487        24.47807         0.27696
C          9.56871        25.25596         0.08152
C         10.78108        27.35652         0.14315
C          9.52671        26.62418         0.08763
C         10.78093        28.75289         0.09989
C          9.51820        29.51395         0.17563
C         10.84242        31.70714        -0.00503
C          9.55888        30.97021        -0.15502
C         10.84919        33.12689        -0.25359
C          9.55881        33.84993        -0.33136
C         10.84067        36.03958        -0.73072
C          9.54328        35.34881        -0.45763
C         10.95976        37.36222        -1.15933
C          9.44294        38.34249         0.62356
C         10.84370        40.28201        -0.24490
C          9.60382        39.67863         0.09888
C         10.87241        41.68736        -0.35086
C         13.40282        18.90928         0.24270
C         13.32460        20.29352         0.40854
C         12.08775        20.94504        -0.02206
C         13.43190        23.22024         1.05732
C         11.64899        22.14507         0.48865
C         13.30667        24.54388         0.64931
C         12.03443        25.21932         0.46026
C         13.26535        27.37678        -0.16243
C         12.01412        26.61012         0.24204
C         13.30135        28.81655         0.36457
C         12.00020        29.54403         0.36408
C         13.30232        31.75026         0.44817
C         12.01123        31.01089         0.19723
C         13.30902        33.15548        -0.11218
C         12.07437        33.81467        -0.33739
C         13.41122        35.97571        -0.81698
C         12.06849        35.22552        -0.77505
C         13.36835        37.44151        -0.67420
C         12.15091        38.14395        -0.81918
C         13.32929        40.25658        -0.37972
C         12.09876        39.54343        -0.49278
C         13.34001        41.70608        -0.34209
C         12.08052        42.44042        -0.44576
C         13.36442        44.56970        -0.79810
C         12.08002        43.82706        -0.53041
C         13.36130        46.05662        -0.55205
C         15.75353        14.58924         0.31925
C         15.75579        15.97361         0.50856
C         14.59059        16.75523         0.36160
C         15.77678        18.88153         0.85951
C         14.58195        18.16062         0.50360
C         15.76164        20.26329         0.95248
C         14.53292        21.00748         0.80941
C         15.87874        23.11645         0.80819
C         14.60332        22.42298         0.90454
C         15.87860        24.54945         0.60469
C         14.59195        25.27560         0.59106
C         15.84268        27.41112        -0.23583
C         14.57564        26.71761         0.22705
C         15.84521        28.81805         0.40773
C         14.56412        29.59019         0.19064
C         15.80967        31.70614         0.04972
C         14.56222        30.95662         0.13854
C         15.78958        33.08651        -0.07138
C         14.55224        33.83903        -0.19718
C         15.82772        35.98900        -0.25505
C         14.61734        35.24361        -0.41088
C         15.80631        37.39635        -0.33065
C         14.57983        38.13234        -0.41062
C         15.82113        40.26818        -0.19171
C         14.57032        39.55505        -0.34782
C         15.78696        41.71529        -0.02802
C         14.53156        42.41103        -0.17945
C         15.63769        44.55778         0.26831
C         14.54672        43.86619        -0.17821
C         15.57755        46.02606         0.61669
C         14.43542        46.74456        -0.07012
C         15.67412        48.88864        -0.06278
C         14.48639        48.19082        -0.13346
C         15.75763        50.29934        -0.29255
C         18.14230        10.18961         0.09267
C         17.74479        11.46043        -0.20017
C         16.72837        12.38582         0.26591
C         18.28645        14.43011         0.57887
C         16.92070        13.77066         0.30111
C         18.28963        15.95253         0.64791
C         17.01586        16.63301         0.92294
C         18.32240        18.84471         1.06611
C         17.02352        18.12982         1.14620
C         18.31759        20.24634         1.11583
C         17.01989        20.97907         1.41360
C         18.34667        23.15797         1.14924
C         17.05618        22.41915         0.96665
C         18.33112        24.56852         0.63567
C         17.08468        25.25677         0.51044
C         18.27937        27.37423         0.16630
C         17.10916        26.68384         0.17904
C         18.32264        28.81472        -0.29466
C         17.07376        29.58306         0.04669
C         18.32782        31.65032         0.15843
C         17.07466        30.96779         0.04137
C         18.36991        33.10960         0.03685
C         17.05739        33.83329        -0.18416
C         18.25460        35.93519         0.32035
C         17.06587        35.28893        -0.00026
C         18.34434        37.38098         0.06968
C         17.07181        38.13420        -0.33130
C         18.31713        40.31864        -0.08775
C         17.03096        39.59313        -0.16903
C         18.26059        41.80400         0.07067
C         16.94003        42.42541         0.24129
C         18.09838        44.60586         1.04846
C         16.85555        43.83175         0.66573
C         18.07351        46.08566         0.88011
C         16.92883        46.72503         0.51934
C         18.10680        48.97083         0.55164
C         16.98425        48.13476        -0.02311
C         18.20473        50.34332         0.01907
C         16.97112        50.99121        -0.34873
C         18.20247        53.08660        -0.73595
C         17.01833        52.39796        -0.67688
C         18.27393        54.46095        -1.17353
C         20.55840         6.15888        -1.53855
C         20.57843         7.65662        -1.50033
C         19.37024         8.27178        -0.84722
C         20.63308        10.34511        -0.59192
C         19.35247         9.60077        -0.53432
C         20.73055        11.73441        -0.47740
C         19.60486        12.61398        -0.62436
C         20.79530        14.68499        -0.05938
C         19.51673        13.90453        -0.15148
C         20.78279        15.88306         0.91521
C         19.48512        16.66484         0.75806
C         20.82615        18.75741         1.11394
C         19.51705        18.07919         0.94933
C         20.82931        20.27467         1.06003
C         19.53646        20.98898         0.92574
C         20.77733        23.04416         0.19495
C         19.54974        22.35566         0.73712
C         20.78446        24.54098         0.41540
C         19.55906        25.23524         0.50731
C         20.76658        27.36776        -0.09690
C         19.57217        26.74163         0.62430
C         20.78638        28.84826         0.18636
C         19.58305        29.53377         0.12111
C         20.73154        31.63326         0.72653
C         19.53837        30.94445         0.34745
C         20.64426        33.07253         1.22218
C         19.47785        33.84778         0.65080
C         20.55837        35.91158         1.54445
C         19.43121        35.21294         0.77485
C         20.55213        37.43681         1.42709
C         19.42989        38.15706         0.74585
C         20.66076        40.39049         1.01758
C         19.57325        39.60223         0.37943
C         20.66594        41.74863         0.95615
C         19.49858        42.53511         0.50217
C         20.61023        44.66894         0.92524
C         19.42328        43.95730         0.92468
C         20.63967        46.09180         1.02039
C         19.34290        46.79482         1.35779
C         20.63648        48.98038         0.83291
C         19.34934        48.28802         1.04805
C         20.61704        50.34926         0.46281
C         19.42587        51.01882         0.07056
C         20.64356        53.28058        -0.12258
C         19.52511        52.37159        -0.60153
C         20.64440        54.59972        -0.52420
C         19.45091        55.16005        -1.16560
C         20.55899        57.40887        -1.18498
C         19.55133        56.48326        -1.90058
C         20.67022        58.76621        -1.80955
C         22.89556         3.37536        -2.28527
C         21.71368         4.04665        -1.99583
C         23.01661         6.08335        -1.40717
C         21.73305         5.43309        -1.63864
C         23.05581         7.40977        -0.95982
C         21.86230         8.22308        -0.93780
C         23.13979        10.19051        -0.13214
C         21.85973         9.55346        -0.55342
C         23.23296        11.66700        -0.11531
C         21.95717        12.36132         0.06260
C         23.28905        14.52598         0.26816
C         21.98855        13.83217         0.30854
C         23.28183        15.95008         0.37845
C         22.06869        16.66001         0.64555
C         23.31865        18.76543         0.62443
C         22.09612        18.04573         0.78042
C         23.36940        20.20748         1.10422
C         22.09805        21.00119         0.80138
C         23.30024        23.14214         0.43057
C         22.08243        22.35223         0.56588
C         23.26551        24.50672         0.25016
C         22.01882        25.24486         0.28703
C         23.26647        27.39814         0.34256
C         22.05199        26.65749         0.22993
C         23.24114        28.82436         0.54405
C         21.99647        29.53135         0.50361
C         23.17859        31.60820         1.21537
C         21.93252        30.92726         0.80330
C         23.17429        33.11161         1.31922
C         21.93242        33.83997         0.84579
C         23.08730        36.00912         1.33598
C         21.91813        35.30449         1.23902
C         23.12948        37.46146         1.49260
C         21.84539        38.18145         1.68647
C         23.14730        40.38862         1.47045
C         21.85117        39.68026         1.57237
C         23.14366        41.78890         1.36862
C         21.83822        42.55303         1.47454
C         23.14047        44.66460         0.98129
C         21.88548        43.88025         0.70021
C         23.12287        46.06645         0.93706
C         21.84964        46.80745         0.96086
C         23.12385        48.93618         0.60507
C         21.84161        48.23734         0.88334
C         23.17240        50.42548         0.44658
C         21.86863        51.14226         0.60060
C         23.17755        53.33763         0.30421
C         21.85805        52.62314         0.41740
C         23.15819        54.75513        -0.15632
C         21.87592        55.39545        -0.56473
C         23.07736        57.15516        -1.84467
C         21.87352        56.66699        -1.07331
C         23.10115        58.61318        -2.18744
C         21.87696        59.34960        -2.22547
C         23.11539        61.25405        -3.13765
C         21.91903        60.69841        -2.70605
C         24.13024         4.02426        -2.20352
C         25.47967         6.01256        -1.71191
C         24.23660         5.36503        -1.73240
C         25.65881         7.25687        -0.98782
C         24.34345         7.95874        -0.50305
C         25.69644        10.14025        -0.32889
C         24.42835         9.41683        -0.16809
C         25.67103        11.63362        -0.55333
C         24.41814        12.34751        -0.10595
C         25.70095        14.51123        -0.10377
C         24.46535        13.79678         0.05606
C         25.69237        15.91311        -0.08448
C         24.50590        16.65810         0.18470
C         25.74760        18.83768         0.04449
C         24.51229        18.09383         0.30359
C         25.78596        20.20634         0.10501
C         24.63824        20.95926         0.67409
C         25.82385        23.16010         0.01066
C         24.60377        22.44015         0.46498
C         25.79601        24.57183         0.02712
C         24.49070        25.28478        -0.17864
C         25.72838        27.41316         0.44254
C         24.50765        26.71739         0.29363
C         25.71245        28.82635         0.70608
C         24.47102        29.52159         0.75821
C         25.65791        31.67381         1.04920
C         24.46630        30.93304         1.00918
C         25.63762        33.13054         1.08284
C         24.43870        33.82876         1.16847
C         25.59036        36.06568         0.98839
C         24.41858        35.29414         1.51601
C         25.55676        37.42721         1.06136
C         24.32388        38.16226         1.35499
C         25.57827        40.33445         1.35709
C         24.37468        39.63068         1.40670
C         25.61033        41.80463         1.70996
C         24.34528        42.51962         1.31703
C         25.60618        44.62696         1.05522
C         24.35828        43.93502         1.13250
C         25.58635        46.03257         0.95064
C         24.37059        46.75410         0.95932
C         25.68644        48.99423         0.73114
C         24.38359        48.22519         0.97213
C         25.69233        50.43568         0.35978
C         24.45569        51.19752         0.46851
C         25.67433        53.26689        -0.12722
C         24.45347        52.56672         0.24036
C         25.67851        54.57271        -0.59010
C         24.45105        55.39980        -0.55219
C         25.62409        57.18049        -1.98714
C         24.40746        56.69416        -1.28706
C         25.54123        58.41045        -2.62992
C         24.31494        59.17831        -2.64223
C         24.30457        60.51411        -3.11759
C         26.85192         8.08606        -1.10232
C         28.10533        10.18747        -0.84139
C         26.88823         9.45192        -0.72201
C         28.25903        11.52920        -0.31308
C         26.92308        12.32983        -0.07296
C         28.18223        14.46055        -0.31529
C         26.96197        13.79222        -0.20084
C         28.19668        15.88572        -0.53557
C         26.87348        16.63088        -0.68945
C         28.16797        18.79096        -0.81447
C         27.04076        18.05337        -0.09746
C         28.20347        20.29965        -0.79678
C         26.96162        20.99653        -0.36133
C         28.26748        23.16292        -0.22987
C         27.02761        22.45941        -0.11883
C         28.24051        24.58353         0.00237
C         27.00084        25.29048         0.08893
C         28.18870        27.42904         0.52612
C         26.98440        26.72188         0.32636
C         28.15821        28.82264         0.83548
C         26.94142        29.53719         0.90039
C         28.10708        31.73947         1.06051
C         26.91985        30.98524         1.03116
C         28.06811        33.17077         0.86057
C         26.86813        33.86098         0.87641
C         28.07457        36.07808         0.69781
C         26.78832        35.32408         0.42921
C         28.08057        37.41236         0.92397
C         26.81158        38.17947         0.81759
C         28.15110        40.32738         1.27579
C         26.84335        39.66220         1.02321
C         28.18286        41.81188         1.59359
C         26.87609        42.52587         1.30093
C         28.18279        44.61699         1.06406
C         26.85869        43.87216         1.07120
C         28.11788        45.98745         0.43893
C         26.82267        46.74603         0.57444
C         28.07379        48.80098        -0.03910
C         26.86606        48.19188         0.50223
C         28.07590        50.27314        -0.32925
C         26.87126        51.05229         0.01394
C         28.13795        53.07856        -0.78646
C         26.99620        52.55204         0.06459
C         28.04679        54.38765        -1.29703
C         26.86013        55.15478        -1.22049
C         26.80531        56.40876        -1.87141
C         29.45613        12.33191        -0.48642
C         30.65729        14.47129        -0.43066
C         29.44267        13.72705        -0.38016
C         30.66731        15.86932        -0.55115
C         29.39592        16.55362        -0.69371
C         30.72695        18.65981        -1.39222
C         29.40717        17.99123        -1.06048
C         30.71478        20.16854        -1.18982
C         29.55825        20.95708        -0.54573
C         30.67862        23.28865        -0.40521
C         29.50843        22.50455        -0.53580
C         30.66179        24.60433         0.12556
C         29.45209        25.30722         0.19996
C         30.67421        27.42190         0.52371
C         29.45628        26.72998         0.46232
C         30.69696        28.85419         0.75468
C         29.42128        29.50654         1.15161
C         30.67054        31.75800         1.11238
C         29.37975        31.03148         1.29357
C         30.61974        33.15351         0.59044
C         29.32452        33.87230         0.47101
C         30.59788        36.08774         0.81535
C         29.35456        35.39335         0.27927
C         30.61410        37.43527         1.04807
C         29.32334        38.13145         1.39633
C         30.61855        40.34615         1.56402
C         29.31593        39.63367         1.24187
C         30.61198        41.75649         1.01426
C         29.42346        42.43532         0.98967
C         30.64949        44.53676         0.13616
C         29.34475        43.81363         0.49026
C         30.68489        46.04760         0.05948
C         29.38956        46.75931         0.38215
C         30.67155        48.83067         0.02189
C         29.35466        48.09825         0.15274
C         30.55214        50.21026        -0.58343
C         29.38880        50.94616        -0.55111
C         29.30704        52.32738        -0.93229
C         31.88742        16.60730        -0.54515
C         33.17809        18.69336        -0.82321
C         31.96722        17.98438        -0.82998
C         33.22362        20.10375        -1.12724
C         31.93711        20.70510        -1.46646
C         33.18038        23.18590        -0.29218
C         31.98903        22.83070        -0.83204
C         33.25022        24.52176         0.34399
C         31.93166        25.26203         0.49453
C         33.14076        27.40521         0.27341
C         31.94340        26.73046         0.43660
C         33.05282        28.86593        -0.08477
C         31.86940        29.54859         0.57198
C         33.03862        31.78558         0.11372
C         31.92276        31.00781         0.74853
C         33.05860        33.24337         0.38071
C         31.89838        33.90338         0.61334
C         33.10975        36.08667         0.91600
C         31.84560        35.31268         1.13157
C         33.12457        37.45570         1.05158
C         31.86642        38.18231         1.16908
C         33.11382        40.30008         1.08833
C         31.87323        39.56859         1.21983
C         33.09938        41.72384         0.96376
C         31.86991        42.44187         0.78280
C         33.11508        44.56087         0.71330
C         31.89305        43.82654         0.51142
C         33.12901        46.01316         0.58760
C         31.97674        46.71660         0.43926
C         31.68432        47.80856        -0.56862
C         34.33272        20.90142        -0.84165
C         35.55219        23.22924        -1.08728
C         34.45763        22.37700        -0.41027
C         35.59556        24.66524        -0.55230
C         34.45599        25.30400         0.00435
C         35.58382        27.47852        -0.17158
C         34.40338        26.72257         0.08523
C         35.54492        28.92637        -0.13450
C         34.36787        29.59955         0.03181
C         35.59468        31.83752         0.13619
C         34.34397        31.07807        -0.09445
C         35.60606        33.18945         0.32551
C         34.34409        34.00298         0.10567
C         35.66179        36.02866         0.99806
C         34.35134        35.30229         0.90290
C         35.61350        37.49468         0.96210
C         34.38815        38.17711         1.03165
C         35.59466        40.33150         0.91190
C         34.35291        39.60800         1.01586
C         35.56270        41.74437         0.92282
C         34.33946        42.44262         0.92601
C         34.30556        43.86845         0.89432
C         36.76332        25.41917        -0.72732
C         38.03624        27.56940        -0.54056
C         36.79946        26.81393        -0.47586
C         38.06980        28.94138        -0.42963
C         36.77855        29.72653        -0.48951
C         38.09608        31.81475         0.08018
C         36.84279        31.01307         0.34556
C         38.10133        33.18046         0.27760
C         36.86773        33.91647         0.46915
C         38.12243        36.06260         0.47546
C         36.89216        35.29752         0.62890
C         38.05218        37.49085         0.52673
C         36.84798        38.20791         0.75201
C         36.81299        39.62080         0.76703
C         39.28278        29.71580        -0.46774
C         40.50164        31.88556        -0.51053
C         39.30098        31.09116        -0.27456
C         40.54209        33.21403        -0.26272
C         39.41581        33.90574         0.46486
C         39.31850        35.39051         0.25497
O         17.93612        33.48914        -1.32357
O         24.99629        21.86623         1.78823
O         14.60698        26.37050         1.62718
O         29.92682        33.19556        -0.71253
O         30.97686        46.73191        -1.31482
O         20.87453        19.55148         2.33858
O         31.99682        22.00301        -1.94064
O         25.09218        48.80215         2.10170
O         25.09928         7.14333         0.39222
O         20.80770        15.40774         2.23475
O         19.35482        39.88622        -1.02545
O         16.92778        17.21392         2.28013
O         29.78078        43.95196        -0.88514
O         17.23370        44.04417         2.10756
O         31.67732        31.50694         2.12054
O         27.84735        49.31547        -1.43081
O         21.76345        12.92681         1.42033
O         12.33861        22.58348         1.64054
O         27.32277        46.11605        -0.74937
O         12.66356        29.07493         1.64786
O         27.59418        11.73248         1.01517
O         24.57828        56.70107         0.15688
O         23.06039        32.29924         2.54024
O         18.39990        48.94132         1.97930
O          8.88477        31.38782        -1.40007
O         19.11443        42.47100        -0.92865
O         26.79432        39.06638        -0.35135
O         12.79857        35.43433        -2.03736
O         34.31349        34.38483        -1.25216
O         27.32227        20.81342        -1.82229
O         32.64935        24.68252         1.66301
O         35.03426        35.35579         2.19128
O         33.46296        31.45986        -1.24103
O         23.15416        49.53961        -0.74296
O         19.42432        37.97923         2.20035
O         29.38959        30.16333         2.46251
O         23.70578         9.64992         1.11967
O          8.84678        29.20189         1.47268
O         28.44936        18.29549        -2.15900
O         21.72620        39.01565         2.88948
O         21.75292        52.02400         1.76884
O         18.07910        37.69404        -1.31923
O         23.20507        54.43813         1.28295
O          9.11196        34.51440        -1.57089
O         18.47892        12.06892        -1.24617
O         26.60372        35.27644        -1.02005
H         27.49657        35.40213        -1.43034
O         15.25420        46.05533         2.04440
H         15.90227        45.45612         2.49061
O         13.35890        31.90330         1.91938
H         13.14038        31.01516         2.29287
O         28.35189        41.94189         3.05778
H         29.19595        41.45207         3.28652
O         26.49041        16.66911        -2.08463
H         27.18756        17.16767        -2.57747
O         30.90731        18.48175        -2.83368
H         30.03674        18.67133        -3.25285
O         29.76526        20.64788         0.88290
H         30.55713        21.13448         1.19632
O         39.73703        33.74938         1.90636
H         39.83126        32.78664         2.07332
O         21.02170        15.25484        -1.38477
H         20.70929        14.61780        -2.06127
O         19.99275        56.23636        -3.24009
H         20.97668        56.13644        -3.24015
O         29.28836        37.99383         2.88327
H         29.55277        37.07317         3.10635
O          9.99413        37.98896        -1.86948
H          9.27445        37.35708        -2.07341
O         31.76972        35.14593         2.61089
H         32.66115        34.86940         2.92091
O         28.53069        44.83480         2.46194
H         28.47121        43.96350         2.92655
O          8.92585        35.73164         1.80757
H          8.55297        36.41084         2.40701
O         20.01355        57.59442         0.15098
H         20.68480        58.05899         0.69331
O         36.60591        30.11278        -1.87998
H         37.35443        30.69569        -2.12779
O         35.27354        23.28608        -2.48627
H         35.85889        23.95377        -2.89799
O         20.56043         8.06891        -2.92882
H         19.66625         7.86780        -3.27828
O         20.34792        35.63811         2.95307
H         19.71557        36.31265         3.28826
O         36.88648        30.59841         1.74287
H         36.91386        31.40651         2.29737
O         34.93842        22.24288         0.96288
H         34.18066        22.02065         1.54321
O         23.43362        20.06255         2.54433
H         23.84580        20.88539         2.89740
O         32.74262        28.86760        -1.52772
H         32.93469        29.78557        -1.85040
O         25.61283        41.84146         3.19429
H         26.55586        41.76838         3.48644
O         27.51395        17.88506         1.26843
H         26.76910        17.56283         1.81941
O         15.94307        28.58028         1.84536
H         15.78318        29.42916         2.30830
O         20.55281        27.15666        -1.52041
H         21.32466        27.51818        -2.00349
O          8.67392        33.05027         1.77981
H          8.77260        33.97271         2.12978
O         17.37615        47.97148        -1.42933
H         16.61956        47.57686        -1.91285
O         24.33858        25.37706        -1.65367
H         25.14634        25.81103        -2.00353
O         20.47171        33.00889         2.64781
H         21.29991        32.62835         3.02962
O         19.26203        46.66888         2.80694
H         18.68323        47.40264         3.12099
O         20.66703        22.88055        -1.27066
H         21.34322        23.46132        -1.68250
O         19.73900        27.05089         2.03441
H         19.03053        26.59237         2.53458
O         16.96519        21.02847         2.89184
H         16.05435        21.29113         3.14658
O         21.95804        43.50730        -0.70157
H         21.90523        44.31785        -1.24908
O         18.30557        28.75928        -1.78237
H         18.42943        29.67661        -2.11049
O         13.16540        27.46992        -1.60756
H         14.07827        27.58436        -1.97523
O         31.18175        49.06789         1.37535
H         30.63129        49.76101         1.79751
O          7.66902        27.09356        -1.38409
H          8.32327        27.43104        -2.02998
O         29.38082        35.62312        -1.16779
H         29.87832        34.86167        -1.55930
O         13.56112        44.45357        -2.26214
H         13.54121        43.49793        -2.48502
O         21.62969        42.86853         2.86792
H         21.77733        42.05752         3.39867
O         18.52258        23.30957         2.61510
H         18.19907        22.46908         3.03081
O         10.41894        37.88446         1.46276
H         11.07790        38.59266         1.60803
O         24.60475        35.30143         2.97992
H         23.86856        34.78622         3.37671
O         30.62277        40.46333         3.03915
H         30.37965        39.56511         3.37809
O         25.70733        11.81912        -2.02052
H         24.85055        11.51831        -2.39042
O         19.93059        52.04133        -1.98538
H         19.78000        52.84228        -2.53346
O         27.38938        52.84282         1.45654
H         27.24414        53.80109         1.61119
O         22.91813        56.43554        -3.14178
H         23.34316        56.97888        -3.84091
O         15.82810        27.53713        -1.67410
H         16.70159        27.92888        -1.95182
O         18.56423        14.02414         1.95198
H         19.41929        14.48304         2.25215
O         21.97721        33.79977        -0.61081
H         22.74700        34.32448        -0.91770
H          4.81938        31.33185        -0.01398
H          4.92117        33.76840         0.04331
H          7.44395        26.83030         0.64123
H          5.99501        29.09414         0.00423
H          6.21450        35.89202         0.15256
H          7.64777        37.91113        -0.43381
H          9.72261        22.72849        -0.38258
H          8.62554        24.69820        -0.02554
H          8.69300        40.27268        -0.07093
H          9.92237        42.23756        -0.27000
H         12.50654        18.36472        -0.09032
H         11.50724        20.44228        -0.81015
H         11.12287        44.36492        -0.60724
H         12.52915        46.62182        -1.00283
H         14.78849        14.10079         0.10759
H         13.65259        16.25186         0.08167
H         13.55318        48.73480        -0.35096
H         14.82298        50.85312        -0.47143
H         17.59239         9.57412         0.81952
H         15.70365        12.00737         0.42386
H         16.07140        52.92148        -0.88017
H         17.36190        54.93152        -1.57309
H         19.59432         5.65250        -1.70846
H         18.46543         7.65847        -0.71740
H         18.54501        56.96916        -1.95328
H         19.75261        59.37341        -1.83987
H         22.85878         2.32429        -2.60465
H         20.74485         3.53915        -2.10705
H         23.13139        62.28923        -3.50687
H         20.99033        61.28555        -2.73419
H         25.04974         3.48194        -2.46638
H         26.34396         5.55059        -2.21120
H         26.43883        58.85054        -3.08887
H         25.24099        60.96802        -3.47126
H         27.74251         7.64852        -1.57738
H         28.96378         9.72221        -1.34875
H         28.90248        54.79921        -1.85405
H         27.72167        56.77732        -2.35708
H         30.38587        11.82819        -0.79045
H         31.61305        13.92809        -0.38954
H         31.49625        50.73156        -0.80977
H         30.19229        52.80158        -1.38425
H         32.81850        16.05914        -0.32941
H         34.09275        18.19240        -0.46813
H         34.10441        46.52075         0.54296
H         32.52579        48.25395        -1.14583
H         35.23328        20.33673        -0.53718
H         36.55674        22.74176        -0.91853
H         36.50628        42.30804         0.87746
H         35.25036        44.42569         0.97592
H         37.67908        24.91828        -1.07919
H         38.97951        27.00611        -0.62464
H         38.98272        38.06263         0.38779
H         37.74864        40.18554         0.63871
H         40.22967        29.19710        -0.68760
H         41.37362        31.37828        -0.95179
H         41.45994        33.78607        -0.46740
H         40.24683        35.96140         0.09816
