         244
 CSIRO Nanostructure Databank - Neutral Graphene Oxide Data Set
C          1.25106         1.88255         0.79516
C          1.14980         3.24841         0.79888
C          2.50690         1.21177         0.77332
C          2.35114         4.08571         0.92979
C          1.16822         6.38119         1.00809
C          1.21372         7.73811         0.87469
C          2.28943         5.54615         0.56230
C          2.41063         8.44368         0.49452
C          1.22966        10.74681         0.70336
C          1.30319        12.10676         0.66400
C          2.38964         9.93777         0.17613
C          2.49739        12.80075         0.26597
C          1.26426        14.86729        -0.55375
C          1.27189        16.15141        -0.96796
C          2.46551        14.30562         0.17004
C          2.47940        16.96209        -0.89697
C          2.46775        18.32667        -1.16981
C          3.70930         1.91038         0.67271
C          3.69257         3.38291         0.80407
C          4.95833         1.24929         0.52881
C          4.89391         4.14819         0.40202
C          3.59565         6.27322         0.27990
C          3.59901         7.74602         0.34051
C          4.87992         5.52016         0.32029
C          4.85412         8.44116         0.07812
C          3.70376        10.62611         0.56602
C          3.71097        12.10162         0.16148
C          4.87020         9.82670         0.03524
C          4.92157        12.77738        -0.09459
C          3.74927        14.92639        -0.33311
C          3.73562        16.31093        -0.65680
C          4.95696        14.19938        -0.31703
C          4.96050        17.03794        -0.80353
C          3.65797        19.07003        -1.07732
C          4.90618        18.47126        -0.88530
C          6.16544         1.94039         0.34438
C          6.12847         3.39859        -0.04491
C          7.40452         1.28794         0.34573
C          7.40457         4.13876         0.28014
C          6.12690         6.26048         0.24871
C          6.10219         7.69243         0.04853
C          7.34476         5.56125         0.37799
C          7.31234         8.37969        -0.08248
C          6.04733        10.54539        -0.42293
C          6.21914        12.00576        -0.05057
C          7.35661         9.76097        -0.53604
C          7.31792        12.66256        -0.92313
C          6.18122        14.89479        -0.62004
C          6.17633        16.26877        -0.84953
C          7.50597        14.14669        -0.53572
C          7.36836        16.81349        -1.56813
C          5.99919        19.45767        -0.44175
C          7.45043        19.22956        -0.79388
C          8.63792         1.99862         0.25326
C          8.61987         3.45193         0.32024
C          9.86094         1.32800         0.15024
C          9.88397         4.15319         0.43895
C          8.58487         6.29089         0.66792
C          8.55590         7.79613         0.40743
C          9.88972         5.59525         0.61266
C          9.82940         8.47258         0.13855
C          8.63083        10.50575        -0.52433
C          8.62837        11.89009        -0.79882
C          9.84865         9.78407        -0.30909
C          9.80998        12.57951        -1.09359
C          8.64386        14.76452        -1.35663
C          8.71301        16.21332        -1.26625
C          9.69674        13.88795        -1.70082
C          9.82109        16.95171        -0.85508
C          8.34354        18.71381         0.08428
C          9.72464        18.26351        -0.23850
C         11.10208         2.03136         0.13897
C         11.08466         3.45693         0.36657
C         12.32469         1.39043        -0.10179
C         12.39009         4.13468         0.70679
C         11.07451         6.31466         0.66797
C         11.04508         7.83593         0.76867
C         12.35474         5.64505         0.58314
C         12.34724         8.40001         0.18248
C         11.14227        10.47740        -0.53893
C         11.14666        11.93018        -0.94499
C         12.37484         9.89120         0.01894
C         12.38303        12.69251        -0.59383
C         11.18623        14.91964        -0.22273
C         11.16900        16.29346        -0.88674
C         12.39385        14.09976        -0.51533
C         12.30877        16.98992        -0.19666
C         10.84299        18.90606         0.25678
C         12.18121        18.33053         0.23068
C         13.53753         2.14136        -0.28509
C         13.57490         3.50121         0.02441
C         14.73182         1.49302        -0.74962
C         14.67656         4.38819        -0.49956
C         13.55561         6.33751         0.57294
C         13.55919         7.81401         0.90789
C         14.81111         5.68400         0.27713
C         14.84273         8.52040         0.55882
C         13.57265        10.56669        -0.03004
C         13.59171        11.99372        -0.31585
C         14.83421         9.86898         0.26529
C         14.80982        12.71657        -0.17947
C         13.59407        14.83843        -0.40024
C         13.54067        16.29235        -0.17345
C         14.80971        14.12493        -0.30577
C         14.70082        17.00833         0.17118
C         13.33979        18.99292         0.68675
C         14.61591        18.36183         0.63144
C         15.94218         2.17404        -0.87713
C         16.03249         3.69808        -0.81525
C         17.15324         1.49870        -1.08289
C         17.18046         4.05113         0.14962
C         16.01323         6.31619         0.47469
C         16.09630         7.76975         0.93709
C         17.28056         5.54887         0.43240
C         17.34239         8.47089         0.43686
C         16.06992        10.61592         0.25764
C         16.06149        12.02189         0.08864
C         17.32248         9.89889         0.35893
C         17.26644        12.76387         0.23494
C         16.07507        14.86720        -0.27225
C         16.01364        16.38399        -0.00911
C         17.30157        14.16300         0.11432
C         17.20310        17.03062         0.53329
C         15.81831        19.02939         1.00020
C         17.09288        18.39241         0.96928
C         18.41104         2.18076        -0.97979
C         18.47040         3.45311        -0.40934
C         19.58889         1.56035        -1.56009
C         19.75781         4.15083        -0.27423
C         18.58330         6.30594         0.34636
C         18.53884         7.78809         0.25228
C         19.80175         5.61835        -0.13356
C         19.76223         8.49851         0.04489
C         18.53872        10.60470         0.33095
C         18.51324        12.06057         0.69768
C         19.77231         9.92315         0.18199
C         19.78430        12.80544         0.38489
C         18.48487        14.91183         0.36200
C         18.43360        16.33490         0.55144
C         19.75157        14.22545         0.44553
C         19.63602        17.04891         0.87193
C         18.28319        19.07176         1.31628
C         19.54553        18.43516         1.22804
C         20.78408         2.19450        -1.61980
C         20.99696         3.47616        -0.93239
C         22.07357         4.36849        -1.37144
C         20.95015         6.33938        -0.41245
C         20.98092         7.79334        -0.19999
C         22.07746         5.68739        -1.05013
C         22.17234         8.52525        -0.22994
C         21.01244        10.64801         0.13995
C         21.00417        12.11380         0.26217
C         22.18796         9.91832        -0.05022
C         22.19713        12.87913         0.23825
C         20.96157        14.96639         0.53463
C         20.90424        16.39994         0.80932
C         22.17690        14.25560         0.41593
C         22.06065        17.15671         1.07099
C         20.74472        19.14964         1.50307
C         21.97363        18.51569         1.41106
O          2.71379         5.78712        -0.81655
O          8.45378         7.24182         1.79311
O         11.36750        10.87697        -1.95441
O         16.22770        15.82365        -1.36178
O          3.16098         3.82383         2.11993
O          7.19827        17.42252        -2.62575
O         20.77407         3.43689         0.50737
O          6.52773        10.09085        -1.72402
O         18.08935         5.78431         1.64196
O         10.54397        14.69284         0.80769
O         13.49287         7.94237         2.35472
H         12.54494         7.89856         2.64281
O          6.63906        11.95142         1.34308
H          7.05763        12.82917         1.55290
O          7.85952        19.68189        -2.01323
H          7.10212        19.74185        -2.62785
O         18.42830        12.07431         2.18040
H         19.15237        11.50521         2.51907
O         10.55237        14.09551        -2.71405
H         10.50095        15.01923        -3.05109
O         16.19750         7.79562         2.38934
H         15.27944         7.71595         2.74705
O         16.49514         4.16591        -2.09888
H         15.69605         4.33525        -2.65025
O         10.92834         8.18951         2.18320
H         10.02600         7.87763         2.46051
O         14.12188         4.80973        -1.80424
H         13.46452         5.52334        -1.63900
O          7.86971        14.23593         0.87579
H          8.83594        14.44890         0.95724
O          6.88686        12.67585        -2.29426
H          6.76826        11.73554        -2.57408
O         12.43462         7.88466        -1.18776
H         12.03538         8.54876        -1.79225
O          3.81407        10.60901         2.01184
H          4.66004        11.05328         2.24502
O          5.90852        19.51340         0.98839
H          4.96533        19.60192         1.23520
O         12.58064         3.88151         2.15211
H         11.78516         4.21984         2.61561
O          6.03743         3.37833        -1.51989
H          5.91276         4.30401        -1.82078
O          2.32627        14.77048         1.57076
H          2.32069        15.75144         1.54779
O          2.32027        10.01258        -1.28068
H          1.58970         9.43288        -1.58142
O         16.90908         3.40692         1.40973
H         17.47634         3.84520         2.08384
O         11.61278        16.25141        -2.28375
H         11.83244        17.17275        -2.53865
H          0.33634         1.27474         0.73933
H          0.17174         3.73531         0.67481
H          2.52040         0.11323         0.72745
H          0.29186         5.89840         1.46442
H          0.32863         8.32096         1.16774
H          0.28699        10.26388         0.99915
H          0.42782        12.70661         0.95521
H          0.34975        14.26111        -0.63147
H          0.37198        16.60582        -1.40967
H          1.52013        18.83790        -1.39064
H          4.98061         0.15126         0.61223
H          3.60100        20.16665        -1.16082
H          7.43603         0.19531         0.47757
H          5.70839        20.46818        -0.86580
H          9.87011         0.23144         0.06124
H          7.97540        18.44880         1.08772
H         12.34116         0.30627        -0.28653
H         10.71859        19.87633         0.75905
H         14.71918         0.39846        -0.87135
H         13.26822        20.02597         1.05753
H         17.14828         0.42001        -1.30408
H         15.76368        20.07880         1.32588
H         19.45679         0.59115        -2.06366
H         18.23470        20.12679         1.62398
H         21.61635         1.76868        -2.20025
H         22.87219         3.95023        -2.00255
H         22.91549         6.31106        -1.39096
H         23.13209         8.01232        -0.37930
H         23.15897        10.43104        -0.08007
H         23.16883        12.37900         0.12680
H         23.13410        14.79393         0.44966
H         23.05232        16.68648         1.02671
H         20.68616        20.21166         1.78122
H         22.89557        19.07753         1.61725
