         252
 CSIRO Nanostructure Databank - Neutral Graphene Oxide Data Set
C         30.69610        31.64342        -1.36747
C         30.76752        32.91626        -1.28829
C         30.81601        35.99519        -1.67338
C         30.97924        37.22204        -1.81520
C         31.10957        40.33586        -2.33171
C         30.99551        41.54641        -2.13342
C         33.12280        28.88347        -0.99375
C         31.99114        29.41606        -1.08845
C         32.87772        31.55759        -0.35183
C         31.71435        30.79801        -0.96731
C         32.92805        33.04667        -0.36176
C         31.73529        33.76188        -0.78116
C         32.92278        36.01424        -0.36636
C         31.66373        35.22467        -0.75431
C         33.09744        37.40301        -0.88366
C         32.10797        38.06609        -1.59825
C         33.08224        40.26850        -0.98530
C         32.31760        39.47393        -2.08952
C         33.24069        41.76268        -1.23654
C         32.05291        42.57611        -1.99628
C         32.99743        44.39950        -0.79794
C         31.92926        43.81094        -1.13456
C         35.89863        27.51730        -1.46439
C         35.64415        28.87093        -1.12692
C         34.41452        29.42930        -0.81202
C         35.46166        31.65674        -0.16355
C         34.27734        30.81321        -0.25862
C         35.38511        33.03372         0.04950
C         34.12415        33.73227        -0.05613
C         35.45154        35.86900        -0.35956
C         34.14081        35.25586         0.18574
C         35.49035        37.37504        -0.20937
C         34.34574        38.10152        -0.57596
C         35.48108        40.22460        -0.19473
C         34.35138        39.52824        -0.62447
C         35.52503        41.70569        -0.28350
C         34.29057        42.46220        -0.64932
C         35.53915        44.66189        -0.18568
C         34.26264        43.89460        -0.42449
C         35.47977        46.08730         0.34938
C         38.26193        27.36238        -0.86967
C         37.00993        26.93699        -1.29886
C         38.30889        28.90717        -0.92207
C         36.92638        29.64418        -0.93975
C         37.86463        31.57646         0.55832
C         36.79345        31.03207        -0.37021
C         37.87322        33.08857         0.63233
C         36.63183        33.78741         0.33815
C         37.67944        35.93224         0.96976
C         36.62319        35.16957         0.29113
C         37.76670        37.39610         0.83034
C         36.66040        38.06622         0.25653
C         37.64580        40.21368         0.95910
C         36.61597        39.50599         0.27197
C         37.39648        41.52104         1.34941
C         36.58588        42.43430         0.53977
C         37.65195        44.68193         1.46462
C         36.46935        43.91274         0.82033
C         37.75712        46.17640         1.28574
C         36.62949        46.59337         0.57847
C         40.59471        24.51397        -0.23802
C         39.64007        25.23885        -0.56806
C         40.59753        27.33963        -0.07914
C         39.43758        26.66549        -0.55995
C         40.55935        28.74383         0.23980
C         39.19167        29.42005         0.23788
C         40.30319        31.56129         1.12742
C         39.25495        30.98971         0.19634
C         40.31454        33.05667         1.23370
C         39.02335        33.73978         1.06045
C         40.16246        35.91276         1.82605
C         38.91918        35.16393         1.43510
C         40.13855        37.43915         1.89036
C         38.77006        38.13055         1.74200
C         40.07830        40.30141         1.23793
C         38.90949        39.58371         1.34640
C         40.01334        41.74746         0.92640
C         39.11004        42.59140         1.63322
C         39.94947        44.61791         0.62516
C         38.94311        43.95505         1.38734
C         39.92663        46.03168         0.66126
C         39.08406        46.78708         1.66143
C         40.55305        48.73700         1.44956
C         39.40339        48.25626         1.44733
C         42.98570        24.50974         0.92958
C         41.59382        25.03853         0.78853
C         43.06625        27.27395         0.62509
C         41.80330        26.53643         0.28499
C         43.03969        28.80340         0.51985
C         41.66569        29.40070         0.74688
C         42.81868        31.51021         1.64711
C         41.55863        30.75796         1.33209
C         42.77775        33.01713         1.71040
C         41.48111        33.73204         1.51047
C         42.74470        36.00075         1.73052
C         41.47162        35.19106         1.86044
C         42.67405        37.48171         1.41844
C         41.44015        38.22754         1.82684
C         42.69816        40.44428         1.24251
C         41.42968        39.78494         1.81187
C         42.94261        41.79276         1.45858
C         40.82998        42.40052        -0.02559
C         42.91879        44.74877         0.31616
C         40.88886        43.80360        -0.06405
C         42.77943        45.98634         0.89052
C         41.89562        47.08496         0.57013
C         43.18557        48.69375         1.73055
C         41.90664        48.35780         1.17517
C         43.94082        25.18336         1.32367
C         45.55193        27.27627         1.53636
C         44.09671        26.65421         1.58942
C         45.46475        28.80039         1.16560
C         44.18633        29.48249         1.24715
C         45.35111        31.66555         1.46967
C         44.12368        30.84559         1.41161
C         45.22526        33.11450         1.15506
C         44.02065        33.74880         1.34946
C         44.96302        35.90023         0.42359
C         43.97563        35.23755         1.34665
C         45.03611        37.40476         0.65665
C         43.75502        38.13873         0.91574
C         45.11825        40.24872         0.52685
C         43.71426        39.60944         0.48860
C         45.29115        41.73320         0.65969
C         44.07609        42.55339         0.87880
C         45.42645        44.65043         0.48276
C         44.09466        43.91914         0.64963
C         45.67780        46.08651         0.98484
C         44.74513        46.82151         1.66467
C         44.34093        48.20608         1.67178
C         47.59367        27.43474         0.27499
C         46.56732        26.76639         0.49267
C         47.82522        28.89824         0.17534
C         46.59914        29.51510         0.87824
C         47.80813        31.74548         0.59036
C         46.66628        30.95955         1.14022
C         47.63598        33.09329         0.32669
C         46.39906        33.82543         0.62835
C         47.36102        35.90930        -0.29822
C         46.30563        35.19404         0.38297
C         47.24032        37.27152        -0.63871
C         46.19988        38.09570         0.00342
C         47.14898        40.18439        -0.99351
C         46.17340        39.54735        -0.24832
C         47.29404        41.65781        -0.87141
C         46.44917        42.34256        -0.02756
C         48.09616        44.23979         0.34689
C         46.62248        43.81414         0.12623
C         48.05049        45.76271         0.32654
C         47.03682        46.38625         0.66697
C         50.37778        29.02707         0.40364
C         49.05158        29.54352         0.82743
C         50.15358        31.66146        -0.24011
C         49.06890        31.04699         0.34215
C         50.12478        33.13674        -0.46934
C         48.79054        33.85248        -0.22484
C         49.18413        35.73286        -1.86621
C         48.46060        35.17710        -0.81733
C         49.17567        37.12902        -2.16073
C         48.18279        37.90923        -1.48060
C         48.84587        39.77040        -2.81777
C         48.06931        39.31660        -1.75784
C         49.15993        41.98293        -2.55042
C         48.43334        42.44308        -1.43083
C         50.14063        44.00964        -1.28202
C         48.90973        43.60668        -0.75233
C         51.40858        29.56882         0.00868
C         52.62725        31.82711        -0.41437
C         51.45684        30.87688        -0.70668
C         52.46698        32.99997        -0.80699
C         51.33092        33.76076        -1.19479
C         51.86534        35.86825        -2.65041
C         51.18546        34.68407        -2.19214
C         51.38137        36.93655        -3.06844
C         50.22603        37.77716        -2.92729
C         50.93338        40.10827        -3.81563
C         50.02930        39.10943        -3.30001
C         51.13977        41.32149        -3.65991
C         50.49076        42.36632        -2.91235
C         50.89302        43.48984        -2.16298
O         37.84020        35.45946         2.37673
O         49.84787        34.79306        -2.66722
O         37.07623        30.83874        -1.79916
O         42.03463        44.33643        -0.72395
O         45.58435        40.81249         1.77899
O         45.91323        44.55894        -0.91394
O         36.49160        44.22913         2.21979
O         43.80662        35.73418         2.70514
O         38.13220        41.98796         2.44762
O         40.49734        30.84163         2.37253
O         33.36340        30.94529         0.86541
O         46.13818        37.83186         1.48537
O         48.54145        41.02484        -3.36588
O         42.81190        32.20551         2.93395
O         43.59603        46.07616         2.04939
O         46.03150        27.18084         2.78091
O         46.30994        31.33996         2.51370
O         49.89274        33.91383         0.75723
O         40.75885        46.72460        -0.22192
O         31.78460        35.84631         0.54919
O         40.86213        37.80812         3.09747
O         40.69895        35.38086         3.08393
O         42.91680        26.64114        -0.67296
O         36.76219        42.16870        -0.89848
O         33.11109        39.46020        -3.27064
H         32.60926        39.02348        -3.98938
O         32.47705        42.93914        -3.28121
H         33.18730        43.60917        -3.21602
O         42.18617        42.53489         2.30332
H         41.65424        41.91599         2.87013
O         40.97454        25.07066         2.03768
H         41.04301        24.19556         2.46988
O         41.35529        40.22389         3.19190
H         40.88930        39.51069         3.69889
O         39.43468        46.41336         2.99368
H         38.76281        46.77006         3.61109
O         38.54366        28.98153         1.43804
H         39.06248        29.31827         2.20502
O         35.44996        35.56543        -1.78317
H         36.23455        35.98363        -2.19495
O         48.88481        29.50915         2.22446
H         49.67805        29.87873         2.66209
O         36.25366        44.68281        -1.43380
H         35.76395        45.25849        -2.05696
O         38.14116        38.12254         3.04529
H         38.02104        37.17702         3.30636
O         32.21727        40.17750         0.18087
H         32.57504        40.74684         0.89361
O         51.36138        30.68475        -2.08914
H         52.05800        30.06201        -2.37991
O         44.37303        35.71510        -0.90622
H         45.02975        35.99799        -1.57801
O         47.79991        29.31827        -1.19450
H         47.15786        28.75794        -1.67812
O         39.64762        31.48351        -1.08980
H         39.04741        31.10198        -1.77778
O         48.51040        43.77996         1.61827
H         49.47208        43.93235         1.72262
O         41.58949        41.71810        -0.93758
H         42.08575        42.39439        -1.45343
O         34.15914        35.45300         1.60889
H         33.23159        35.38478         1.92983
O         37.45003        31.16091         1.87750
H         38.03042        31.58757         2.54340
O         38.96965        29.19887        -2.16510
H         38.36138        28.98372        -2.90301
O         43.60876        26.93485         2.88187
H         44.41953        26.99287         3.46179
O         43.32466        29.13737        -0.87492
H         43.14760        28.31731        -1.40165
O         43.36767        39.55688        -0.93677
H         42.56985        40.11761        -1.08077
