         647
 CSIRO Nanostructure Databank - Neutral Graphene Oxide Data Set
C          6.00344        31.90371        -0.71329
C          5.97364        33.24631        -0.52092
C          8.19897        27.41553        -0.37412
C          8.31069        28.92600        -0.33110
C          7.16594        29.69782        -0.59710
C          8.32011        31.70406         0.15383
C          7.14961        31.08357        -0.35466
C          8.27375        33.09187         0.62878
C          7.01183        33.93507         0.26474
C          8.36726        35.98085         0.72558
C          7.22928        35.36699         0.18341
C          8.46578        37.40347         0.66146
C         10.87665        23.32191         0.12822
C         10.81197        24.59023        -0.42533
C          9.53368        25.32034        -0.51298
C         10.84343        27.26871         0.12097
C          9.50906        26.65607        -0.30929
C         10.74913        28.80315         0.44153
C          9.50119        29.56451         0.03945
C         10.73864        31.69197         0.63668
C          9.52350        30.97288         0.25772
C         10.73309        33.04854         0.92873
C          9.52030        33.81429         0.92560
C         10.72262        35.87777         1.68202
C          9.50657        35.18885         1.16201
C         10.80597        37.37575         1.54782
C          9.62081        38.12352         1.03082
C         10.90310        40.18577         1.52791
C          9.67954        39.50766         0.99100
C         10.97601        41.67456         1.26517
C         13.55085        19.23879         1.13395
C         13.47417        20.59328         0.76611
C         12.23890        21.26216         0.71473
C         13.26442        23.10908        -0.48363
C         12.20892        22.75095         0.53573
C         13.12803        24.42622        -1.23923
C         11.98106        25.28173        -0.89667
C         13.09177        27.70013        -1.22501
C         11.92033        26.77515        -0.88719
C         13.14696        29.08240        -0.65512
C         11.93291        29.63689        -0.01154
C         13.22049        31.61530         0.69787
C         12.01322        30.98813         0.59719
C         13.27112        33.11435         0.70865
C         12.01720        33.69377         1.33020
C         13.35192        35.86696         1.96827
C         12.01989        35.11077         1.78395
C         13.31707        37.31334         1.51802
C         12.14232        38.00545         1.38385
C         13.39889        40.16110         1.41592
C         12.14759        39.46316         0.97411
C         13.36092        41.54561         1.69349
C         12.14414        42.34124         1.42448
C         13.46171        44.49799         0.82184
C         12.15382        43.87791         1.30127
C         13.59544        45.36599        -0.22139
C         16.14297        15.08784         2.05306
C         16.11456        16.50443         1.80603
C         14.90287        17.20319         1.83900
C         16.10546        19.39294         1.22966
C         14.81530        18.63292         1.53695
C         15.97479        20.66594         0.47744
C         14.71219        21.29467         0.38345
C         15.77116        23.21924        -0.72424
C         14.61761        22.54355        -0.27480
C         15.65544        24.50328        -1.40425
C         14.41427        24.94899        -1.73391
C         15.60105        27.60168        -1.10491
C         14.40763        27.17949        -1.62020
C         15.64423        28.90418        -0.43159
C         14.46379        29.61766        -0.23736
C         15.80327        31.52757         0.83980
C         14.47229        30.83391         0.57670
C         15.75859        32.99496         1.08904
C         14.57339        33.72891         1.17046
C         15.80763        35.84815         1.42020
C         14.58487        35.13115         1.43469
C         15.82220        37.29405         1.50161
C         14.59688        38.00529         1.48655
C         15.83667        40.13050         1.77348
C         14.60211        39.43556         1.56471
C         15.82155        41.53322         2.03212
C         14.53147        42.12177         2.19803
C         15.92636        44.43304         1.27097
C         14.63512        44.17877         1.60615
C         16.14678        45.30303         0.09040
C         14.93920        45.82985        -0.64589
C         16.17385        48.06737        -0.91482
C         15.07612        47.14523        -1.43009
C         16.13885        49.42769        -1.30199
C         18.31884        10.70957         1.87465
C         18.45984        12.14095         1.91855
C         17.30966        12.90527         1.99880
C         18.49724        14.98004         1.39426
C         17.30346        14.34333         1.89584
C         18.44409        16.37000         1.03969
C         17.31339        17.14695         1.35024
C         18.44284        19.11092         0.20314
C         17.45235        18.64777         1.26340
C         18.42495        20.58157        -0.04013
C         17.12242        21.29298        -0.05635
C         18.21099        23.26773        -1.14361
C         17.03554        22.58955        -0.61214
C         18.17462        24.66855        -1.50878
C         16.86313        25.37661        -1.76756
C         18.10303        27.52898        -1.09564
C         16.83473        26.71100        -0.94751
C         18.12344        28.82758        -0.63411
C         16.92394        29.52553        -0.19233
C         18.22903        31.59246         0.22144
C         17.01470        30.86314         0.28538
C         18.30522        32.92450         0.83036
C         17.03016        33.68171         1.28958
C         18.26905        35.86377         1.32404
C         17.05166        35.15707         1.31423
C         18.29909        37.28428         1.42516
C         17.07163        37.99784         1.51384
C         18.27687        40.18056         1.74154
C         17.07526        39.43971         1.66933
C         18.26431        41.58672         1.93718
C         17.04406        42.27642         2.05992
C         18.37584        44.37841         1.69311
C         17.04408        43.81433         2.11423
C         18.45493        45.70054         1.03777
C         17.36771        46.17046         0.13882
C         18.07294        48.62087         0.62391
C         17.22704        47.60703        -0.12636
C         18.27061        49.86978        -0.20408
C         17.21619        50.30057        -0.99520
C         18.44893        52.46860        -1.45502
C         17.11620        51.76268        -1.37598
C         18.58557        53.63384        -2.21519
C         20.73184         6.46178         1.28002
C         20.79212         7.81231         1.65735
C         19.54801         8.49336         1.80928
C         21.25159        10.89110         1.90884
C         19.35781         9.83479         2.19844
C         21.00686        12.11692         1.34156
C         19.81716        12.89398         1.91141
C         20.67305        14.71767         0.33484
C         19.67432        14.21953         1.20035
C         20.32386        15.92358        -0.33533
C         19.45858        16.89952         0.16738
C         20.55535        18.87574        -1.20748
C         19.46562        18.31313        -0.24169
C         20.71126        20.39722        -1.21538
C         19.54850        21.21024        -0.80493
C         20.53625        23.23864        -1.95655
C         19.39167        22.58009        -1.30057
C         20.62865        24.70809        -1.80909
C         19.35457        25.37815        -1.66909
C         20.65068        27.54761        -1.57119
C         19.31872        26.85940        -1.64504
C         20.69937        28.87403        -0.88622
C         19.42027        29.53827        -0.46390
C         20.65367        31.69951        -0.37273
C         19.43975        31.00306        -0.26837
C         20.67840        33.16140        -0.13383
C         19.45050        33.79321         0.45786
C         20.82773        35.86503         1.06149
C         19.53905        35.10950         1.17033
C         20.75736        37.33507         1.19620
C         19.57081        37.99921         1.39604
C         20.81375        40.25256         1.58694
C         19.53820        39.51436         1.25174
C         20.82797        41.61801         1.74542
C         19.57889        42.28563         2.31132
C         20.80480        44.48207         1.78834
C         19.57600        43.76662         1.92738
C         20.78822        45.94905         1.94090
C         19.45610        46.62949         1.62678
C         20.57587        48.95513         1.58049
C         19.35023        48.10585         1.33933
C         20.54904        50.28374         0.88286
C         19.26154        50.87298         0.30735
C         20.70725        52.77499        -0.60839
C         19.50792        52.03700        -0.62995
C         20.86300        53.91592        -1.40863
C         19.78008        54.38341        -2.19301
C         20.96066        56.47833        -2.71095
C         19.84971        55.69541        -2.80569
C         20.88854        57.95278        -3.03897
C         22.80126         3.62514        -0.02771
C         21.71248         4.35254         0.49338
C         23.14889         6.34233         0.72786
C         21.85396         5.69991         0.85912
C         23.27627         7.68491         1.04692
C         22.14982         8.43916         1.64527
C         23.43812        10.53702         0.81775
C         22.35076         9.98300         1.62011
C         23.22815        11.85759         0.09284
C         22.03736        12.70915         0.52209
C         23.16067        14.69885        -0.46386
C         21.94752        14.02826         0.06789
C         23.21381        16.06493        -0.88758
C         22.04446        16.85865        -1.20825
C         23.18665        18.96879        -1.10380
C         21.91839        18.20719        -1.07781
C         23.17240        20.41718        -1.45921
C         21.83908        21.04587        -1.64818
C         23.04366        23.17415        -2.56034
C         21.77039        22.42979        -2.21741
C         23.14172        24.63974        -2.13430
C         21.86710        25.35431        -1.78048
C         23.12616        27.50132        -1.67639
C         21.93258        26.78787        -1.64392
C         23.08759        28.99538        -1.60809
C         21.88844        29.69721        -1.13172
C         23.12964        31.79395        -0.73013
C         21.87866        31.04923        -0.78639
C         23.14175        33.21081        -0.39702
C         21.96910        33.88908        -0.05168
C         23.14752        36.04414         0.16085
C         21.99752        35.26495         0.36111
C         23.22862        37.41012         0.56670
C         22.06696        38.03227         1.21259
C         23.28958        40.29167         1.08255
C         22.08953        39.53977         1.44026
C         23.26039        41.72605         1.18765
C         22.05197        42.37594         1.57028
C         23.23749        44.57777         1.45188
C         22.03821        43.81130         1.61128
C         23.21171        46.03535         1.55213
C         22.02377        46.73004         1.79152
C         23.26206        48.91375         1.69436
C         21.95063        48.24150         2.10155
C         23.43325        50.29890         1.75892
C         21.53450        51.19051         1.10215
C         23.23628        52.90142         0.09140
C         21.87886        52.25564         0.14245
C         23.21338        54.36093        -0.37605
C         22.17916        54.58528        -1.48103
C         23.39459        56.77996        -1.97688
C         22.21604        55.91680        -2.18603
C         23.41469        58.06131        -2.55885
C         22.23283        58.63847        -3.14144
C         23.51816        60.61063        -3.79442
C         22.30018        59.87794        -3.74516
C         24.03321         4.22156        -0.21065
C         25.48237         6.19779        -0.07854
C         24.25813         5.58771         0.16298
C         25.76726         7.55417         0.36023
C         24.58667         8.36712         0.94731
C         25.74449        10.44688        -0.00398
C         24.59085         9.81936         0.64210
C         25.70068        11.78452        -0.30207
C         24.53412        12.64369         0.17521
C         25.61340        14.66415        -0.82460
C         24.41839        14.01746        -0.45739
C         25.65862        16.06126        -1.05369
C         24.43366        16.74976        -1.05550
C         25.69879        18.88361        -1.74554
C         24.39136        18.16027        -1.47793
C         25.68249        20.35563        -1.83277
C         24.36634        20.96466        -2.19457
C         25.75874        23.34006        -1.22021
C         24.19594        22.25409        -2.91885
C         25.65821        24.72705        -1.72940
C         24.44155        25.36748        -1.90454
C         25.60998        27.54494        -1.74724
C         24.41373        26.83688        -1.85549
C         25.61281        28.90529        -1.14839
C         24.39827        29.74724        -1.36316
C         25.57923        31.79614        -0.41983
C         24.33306        31.11372        -0.82982
C         25.59584        33.26717        -0.56877
C         24.39181        33.93617        -0.50029
C         25.62679        36.18690        -0.49485
C         24.32422        35.41481        -0.48010
C         25.65531        37.53109         0.10828
C         24.43346        38.16242         0.48742
C         25.68861        40.30224         0.59070
C         24.46140        39.58103         0.76174
C         25.64843        41.79614         0.37329
C         24.43512        42.48851         0.95274
C         25.71214        44.61231         1.05535
C         24.45020        43.88771         1.15741
C         25.73006        46.04778         1.27172
C         24.47648        46.75481         1.45368
C         25.71343        48.92150         1.63971
C         24.45377        48.15508         1.51309
C         25.77896        50.35839         1.30530
C         24.55653        51.04530         1.30735
C         25.73109        53.11565         0.47617
C         24.41497        52.54790         1.02223
C         25.78436        54.31822        -0.30682
C         24.57268        54.94394        -0.73926
C         25.82202        56.88073        -1.65434
C         24.57579        56.18438        -1.43536
C         25.83521        58.18540        -2.20813
C         24.65521        58.79731        -2.63510
C         24.66474        60.09244        -3.24752
C         26.91666         8.28807        -0.20890
C         28.16150        10.35936        -0.66091
C         26.94634         9.65839        -0.30602
C         28.17676        11.72317        -0.88067
C         26.87087        12.42085        -0.93375
C         28.13665        14.62825        -1.13074
C         26.85050        13.90587        -1.12747
C         28.13338        16.01623        -1.06454
C         26.91338        16.76688        -1.17848
C         28.13327        18.92188        -1.32074
C         26.93744        18.16655        -1.38075
C         28.11262        20.31863        -1.52203
C         26.86303        21.06455        -1.64534
C         28.09231        23.14444        -2.08081
C         26.92993        22.52669        -1.63769
C         28.22889        24.63613        -2.18406
C         26.88205        25.40622        -2.32065
C         28.20752        27.57988        -1.52772
C         26.92719        26.90032        -1.96931
C         28.19166        28.93244        -0.91022
C         26.88259        29.56840        -0.67167
C         28.14905        31.78526        -0.39587
C         26.86804        31.04054        -0.34707
C         28.15841        33.19734        -0.39668
C         26.90212        33.94236        -0.69586
C         28.16137        36.14431        -0.23003
C         26.92445        35.45644        -0.64426
C         28.13716        37.48768         0.05953
C         26.87721        38.20543         0.20970
C         28.16293        40.36946         0.13538
C         26.87998        39.62181         0.41160
C         28.14780        41.79514         0.64066
C         26.94892        42.47470         0.72479
C         28.17966        44.61129         0.71090
C         26.90482        43.90635         0.87899
C         28.22142        46.10686         0.96664
C         26.94978        46.73515         1.34077
C         28.28541        48.89092         1.49747
C         27.00130        48.16532         1.65580
C         28.40248        50.42646         1.38381
C         27.01209        51.05455         1.17261
C         28.58569        53.03718        -0.33316
C         26.89912        52.43324         0.91789
C         28.22009        54.14161        -1.13152
C         27.02949        54.87129        -0.89045
C         27.00738        56.16818        -1.45122
C         29.36808        12.48943        -1.10066
C         30.61930        14.63032        -1.23703
C         29.37086        13.88200        -1.17674
C         30.66434        15.98354        -1.07723
C         29.40822        16.73174        -0.88303
C         30.69973        18.91654        -1.29760
C         29.41448        18.23801        -1.02751
C         30.65159        20.39837        -1.36870
C         29.33908        21.01396        -1.76286
C         31.10772        23.39865        -1.97029
C         29.22113        22.29182        -2.29412
C         30.85452        24.68740        -1.52259
C         29.55345        25.36645        -1.84099
C         30.64302        27.43597        -0.67707
C         29.41236        26.73504        -1.22473
C         30.63224        28.90889        -0.59714
C         29.37086        29.60942        -0.62968
C         30.56726        31.76726        -0.23769
C         29.36259        31.06054        -0.39006
C         30.56874        33.16995        -0.05402
C         29.36978        33.90042        -0.22103
C         30.61808        36.05463         0.28941
C         29.46256        35.40591        -0.44449
C         30.56518        37.38734         0.63521
C         29.37320        38.19945         0.39831
C         30.53888        40.28245         1.20280
C         29.37836        39.56461         0.54491
C         30.64633        41.74033         0.85488
C         29.42219        42.48551         0.76825
C         30.68841        44.64952         0.69858
C         29.43688        43.87817         0.79584
C         30.71492        46.06582         1.16071
C         29.52014        46.72416         1.37672
C         31.19782        48.99956         0.75809
C         29.40304        48.14073         1.71515
C         30.65770        50.09108        -0.01095
C         29.47373        50.77740         0.23474
C         29.29352        51.89693        -0.65858
C         31.97033        16.73818        -0.91560
C         33.14666        18.94420        -1.12419
C         31.90584        18.24152        -1.16154
C         33.22586        20.34681        -1.10654
C         31.96988        21.13274        -1.24118
C         33.26548        23.23360        -0.92887
C         32.15231        22.59095        -1.46733
C         33.22805        24.65492        -0.77630
C         31.98405        25.35672        -0.93802
C         33.14368        27.45824        -0.42693
C         31.94960        26.74769        -0.69091
C         33.07568        28.87829        -0.27991
C         31.84050        29.57500        -0.40074
C         32.89836        31.61770         0.59892
C         31.89814        31.08187        -0.41748
C         33.00995        33.12822         0.45387
C         31.82282        33.86444         0.25836
C         33.04410        35.89206         0.84466
C         31.83292        35.27129         0.45682
C         33.06132        37.31363         1.23627
C         31.75530        38.07823         1.18457
C         33.06016        40.20018         1.15285
C         31.83813        39.54196         1.09320
C         33.10375        41.64006         1.06288
C         31.89288        42.37360         0.86879
C         33.25714        44.52182         0.97137
C         31.97555        43.83843         0.66635
C         33.29082        45.89029         1.07423
C         32.08832        46.75911         1.34301
C         32.06182        47.99956         0.44063
C         34.42156        21.04413        -0.83202
C         35.61441        23.15529        -0.27432
C         34.46312        22.45873        -0.64295
C         35.64075        24.59188        -0.19798
C         34.41141        25.35283        -0.41721
C         35.62985        27.49892        -0.10302
C         34.40234        26.76157        -0.30378
C         35.55820        28.88465         0.00298
C         34.28448        29.59397         0.05532
C         35.37237        31.59387         1.16914
C         34.21392        30.89791         0.51666
C         35.52188        33.01204         0.56798
C         34.23418        33.78593         0.69044
C         35.48895        35.88452         1.39782
C         34.25066        35.17258         0.89756
C         35.58035        37.30250         0.83211
C         34.31276        38.07315         1.12503
C         35.58712        40.16407         1.22077
C         34.31246        39.44698         1.16527
C         35.57906        41.56228         1.21688
C         34.37409        42.31773         1.10284
C         34.43169        43.72296         1.07238
C         36.82006        25.25707         0.04814
C         37.87042        27.23984         1.10328
C         36.98161        26.75000        -0.04467
C         38.39978        28.52448         1.07441
C         36.72069        29.72455         0.23284
C         37.85852        31.53598         1.50871
C         36.66134        30.88422         0.92743
C         37.94783        32.99431         1.28007
C         36.77352        33.72454         1.06335
C         38.00767        35.83074         1.49421
C         36.77898        35.12804         1.20159
C         37.96553        37.27317         1.60308
C         36.82287        38.01657         1.32236
C         36.78985        39.42796         1.38180
C         39.10128        29.28438         2.02608
C         40.23052        31.57502         2.37930
C         39.01336        30.76897         2.07442
C         40.32128        32.88794         2.11317
C         39.29208        33.66196         1.31666
C         39.19767        35.12768         1.63363
O         22.35694        51.04687         2.21442
O         26.61968        12.99625        -2.27748
O         28.20966        45.59081        -0.40529
O         20.45397        35.13130         2.30078
O         26.37111        48.58091         2.92887
O         25.61892         7.81901         1.80855
O         24.78105        36.11017        -1.68801
O         20.28261        28.83126         0.52305
O         10.52631        36.74664         2.84486
O         12.19524        29.91220        -1.43986
O         14.32430        26.11297        -2.52053
O         22.35708        38.57986         2.54356
O         38.00971        29.26444        -0.08517
O         20.91050        16.13130        -1.58822
O         22.94773        51.85375        -0.85784
O         17.94420        33.00985         2.22921
O         31.08628        20.96125        -0.05286
O          7.21367        33.35375         1.59240
O         29.41294        17.59809         0.31096
O         19.89068        27.54528        -2.82169
O         24.89338        18.29564        -2.84238
O         22.66275         9.17417         2.79690
O         19.49083        21.26025         0.70776
O         22.96162        24.22035        -3.56390
O         23.90493        21.01399        -3.62469
O         23.41781        19.98897        -0.07573
O         31.39361        44.35999        -0.57148
O         32.27468        37.55761         2.46297
O         18.60224        45.58385        -0.43519
O         28.09244        53.15254         0.98095
O         15.15976        30.70837         1.87831
O         19.64267        42.19826         3.69616
O         14.40844        43.39758         2.75516
O         15.77620        44.75076        -1.20974
O         30.31353        22.82527        -2.96327
O         26.12307        31.33749         0.88968
O         37.89137        31.24210         3.00190
O         29.66215        26.73394         0.20686
O         20.78166        22.61296        -3.27831
O         11.99924        33.99917         2.76001
O         19.67101        33.89311        -0.97575
O         29.12806        25.17486        -3.21094
O         30.56506        48.87266         2.02541
O         24.89180        22.89371        -0.45902
O         22.66828        54.65421        -2.84296
O         26.02769        28.80851         0.26178
O         15.53760        19.49135         2.56103
O         12.78149        23.11199        -1.84747
O         20.41196        10.44283         2.92708
O         27.05520        34.75629        -1.93159
O         11.99942        27.46833        -2.16312
O         19.53709        48.84499         2.60231
O         23.82750        29.63483        -2.70138
O         27.79294        27.61770        -2.93427
O         19.82044        46.36493         2.99350
O         11.25708        26.58841         1.32515
H         10.88064        27.06943         2.09636
O         13.19818        33.50477        -0.71426
H         12.70491        32.80985        -1.20257
O         10.94866        39.98320         2.96724
H         10.08783        40.25326         3.34806
O         12.05819        39.53202        -0.47881
H         12.89942        39.19585        -0.85285
O         30.20276        40.26271         2.64816
H         30.48155        39.39137         3.00673
O         26.59727        25.37235        -3.74758
H         27.35476        25.82251        -4.18852
O         24.15031        53.24272         2.27527
H         24.85630        53.01043         2.91541
O         16.36102        52.39482        -0.31835
H         16.89464        52.29053         0.50516
O         28.21579        40.51633        -1.33329
H         28.26264        39.61555        -1.72101
O         35.73740        32.79960        -0.85525
H         35.62071        33.65689        -1.31607
O         17.17585        49.05055         1.73749
H         17.48161        48.61455         2.56343
O         35.33532        36.04215         2.83621
H         35.21969        35.15437         3.23491
O         11.07231        44.29579         0.47556
H         11.19444        43.91037        -0.41611
O         18.58029        51.47425         1.47148
H         18.20240        50.72323         1.99383
O         35.10834        31.72938         2.59362
H         35.94711        31.52038         3.07256
O         13.58453        35.94013         3.39984
H         13.22658        35.11156         3.79362
O         29.75554        35.54778        -1.87576
H         28.94251        35.24397        -2.34933
O         13.83081        47.84870        -1.41881
H         13.73128        48.30231        -0.55678
O         16.87055        44.22271         3.49404
H         17.55211        43.75426         4.02640
O         19.46257        39.69710        -0.22423
H         18.61288        39.31075        -0.52813
O         18.08377        19.02821         2.52572
H         17.35581        19.17929         3.17324
O         32.40563        31.47452        -1.72510
H         31.76454        31.18241        -2.40602
O         22.70551        55.11225         0.76452
H         23.20576        54.81614         1.56214
O         32.36751        31.37512         1.92771
H         33.10709        31.51951         2.56403
O         28.91432        50.96979         2.60591
H         29.75946        50.50551         2.80085
O         12.62072        23.39266         1.79294
H         11.99028        23.12344         2.49295
O         20.03922        18.59320        -2.54158
H         20.10583        17.61909        -2.67384
O         37.66698        26.96468        -1.30825
H         37.96261        27.90684        -1.31494
O         33.00083        16.14918        -1.71470
H         32.75843        16.24601        -2.65803
O         24.76028        12.89022         1.59265
H         25.57139        13.43031         1.69376
O         16.77666        26.27140         0.44069
H         16.89583        27.05394         1.02065
O         22.98160        11.49817        -1.29490
H         23.00005        12.32018        -1.83037
O         16.87035        25.68045        -3.16995
H         15.96407        25.96369        -3.43093
O         25.52857        41.93890        -1.08692
H         26.36435        41.58550        -1.47557
O         32.27481        47.09783         2.73488
H         31.68915        47.86256         2.94598
O          7.44959        27.00153        -1.52315
H          7.99066        27.17233        -2.32126
O         25.28382        22.88834        -3.51176
H         24.94388        23.65576        -4.02991
O         10.76564        28.89051         1.89992
H         10.60409        29.82336         2.15910
O         20.11802        13.19530         3.29914
H         20.22788        12.33351         3.76084
O         21.88947        48.33705         3.53293
H         20.98094        48.06293         3.80272
O         20.11313        58.17036        -4.22350
H         20.56089        57.71818        -4.96749
O         35.68812        37.16343        -0.61459
H         35.81603        38.05823        -0.99432
O         39.79721        33.59738        -0.08534
H         39.18298        34.12567        -0.63935
H          5.18011        31.41256        -1.25297
H          5.14820        33.84678        -0.93162
H          7.58450        27.11243         0.52071
H          6.25677        29.19508        -0.95741
H          6.49949        35.98359        -0.36221
H          7.59569        37.96447         0.28902
H          9.95393        22.84406         0.49261
H          8.61251        24.76154        -0.73647
H          8.82146        40.09072         0.62272
H         10.05245        42.23122         1.03996
H         12.62722        18.65058         1.24141
H         11.30893        20.70449         0.90369
H         11.95552        44.29009         2.32871
H         12.71527        45.72044        -0.77900
H         15.20960        14.58939         2.35300
H         13.97005        16.65415         2.03518
H         15.29087        46.88902        -2.50040
H         15.29940        49.79206        -1.91062
H         17.36103        10.30051         1.51648
H         16.34088        12.39835         2.13114
H         16.53725        51.89460        -2.32365
H         17.73750        53.98903        -2.81920
H         19.74887         5.96605         1.28399
H         18.65564         7.94290         1.47109
H         18.92912        56.11675        -3.23692
H         20.32139        58.45431        -2.20241
H         22.65745         2.57237        -0.30853
H         20.73235         3.86593         0.59905
H         23.52956        61.59945        -4.27389
H         21.39081        60.30693        -4.18938
H         24.86954         3.64696        -0.63374
H         26.23733         5.67381        -0.68442
H         26.79997        58.69229        -2.35714
H         25.60930        60.65385        -3.28624
H         27.80267         7.70363        -0.50219
H         29.10038         9.78644        -0.69608
H         28.87485        54.47282        -1.95209
H         27.95978        56.61397        -1.77399
H         30.32983        11.95490        -1.12625
H         31.55950        14.06822        -1.34545
H         31.26514        50.43827        -0.86318
H         29.80470        51.86072        -1.63321
H         32.29230        16.60333         0.15482
H         34.06672        18.35488        -0.99596
H         34.26229        46.37840         1.24953
H         32.55942        47.97002        -0.53828
H         35.34750        20.46701        -0.68614
H         36.55043        22.60621        -0.09205
H         36.53333        42.10571         1.28447
H         35.40488        44.22312         1.18701
H         37.74107        24.67243         0.19595
H         38.05521        26.58141         1.96383
H         38.89196        37.79791         1.88416
H         37.71783        39.97695         1.60458
H         39.60134        28.78302         2.86810
H         41.05664        31.06503         2.89916
H         41.23882        33.43277         2.38510
H         40.13452        35.67785         1.81030
