         272
 CSIRO Nanostructure Databank - Neutral Graphene Oxide Data Set
C        -11.31665         0.86625        -0.40594
C        -10.12028         1.67297        -0.82028
C         -9.06430         0.84481        -1.59658
C         -7.78031         1.54215        -1.95437
C         -6.44771         0.79315        -2.02202
C         -5.13448         1.54185        -1.97907
C         -3.79743         0.77116        -2.09225
C         -2.62624         1.42915        -1.35541
C         -1.28783         0.76920        -1.61348
C         -0.04403         1.42751        -1.07625
C          1.15144         0.57562        -0.75660
C          2.40030         1.36322        -0.48713
C          3.73040         0.68614        -0.58199
C          4.84439         1.22358         0.32713
C          6.21878         0.68791        -0.01374
C          7.33564         1.43013         0.21800
C          8.65252         0.78827         0.42428
C          9.89828         1.64206         0.03809
C         11.09443         0.87905        -0.37939
C         -9.11295         1.93856         0.35870
C         -8.25296         3.09395        -0.11861
C         -7.75317         3.05301        -1.58298
C         -6.34275         3.72584        -1.73415
C         -5.18981         2.87933        -1.22900
C         -3.89493         3.66871        -1.09823
C         -2.66890         2.85277        -0.89978
C         -1.39078         3.59473        -0.65710
C         -0.11025         2.81987        -0.53496
C          0.92682         3.31518         0.43336
C          2.25223         2.59795         0.38271
C          3.50161         3.36211         0.67351
C          4.78658         2.74497         0.21012
C          5.99797         3.58914         0.07369
C          7.29476         2.92563         0.59007
C          8.50819         3.71488        -0.05983
C          9.62969         2.99123        -0.45634
C         -8.10616         4.21650         0.61838
C         -7.31638         5.35964         0.11405
C         -6.38714         5.10564        -1.04537
C         -5.08962         5.89667        -1.16449
C         -3.89478         4.99909        -0.83853
C         -2.78856         5.71238        -0.08170
C         -1.46134         4.98076        -0.12081
C         -0.36529         5.54796         0.74153
C          0.87147         4.70943         0.99525
C          2.14505         5.42474         1.43396
C          3.49890         4.79339         1.15768
C          4.73369         5.64385         1.01619
C          5.82976         5.11861         0.06328
C          7.16925         5.82012         0.17572
C          8.38592         5.10779        -0.09585
C         -7.07485         6.54939         0.92283
C         -6.02759         7.45096         0.64898
C         -5.05853         7.14786        -0.32412
C         -3.83003         7.93602        -0.40889
C         -2.52142         7.16600        -0.61142
C         -1.47250         7.85255         0.30532
C         -0.41480         7.01564         0.99777
C          0.87421         7.74719         1.30957
C          2.10744         6.90975         1.59507
C          3.30939         7.87393         1.43144
C          4.68092         7.16494         1.17280
C          5.92387         7.91245         0.76923
C          7.14915         7.17825         0.34698
C         -5.82780         8.61907         1.51006
C         -4.69871         9.36862         1.50044
C         -3.60640         9.08592         0.54981
C         -2.14708         9.11490         0.94141
C         -1.01930         9.22358        -0.01544
C          0.25973         9.66090        -0.05476
C          1.31211         8.55286         0.04639
C          2.77172         8.95880         0.39213
C          3.68037         9.25126        -0.79464
C          4.97621         9.90753        -0.41879
C          5.91367         9.34641         0.35734
C        -11.23031        -0.43471        -0.09122
C         -9.93420        -1.09143        -0.09289
C         -8.75903        -0.29347        -0.63418
C         -7.65987        -1.23321        -1.13426
C         -6.40597        -0.68278        -1.74867
C         -5.22622        -1.40761        -1.82881
C         -3.87727        -0.70313        -1.59225
C         -2.59648        -1.45335        -2.01463
C         -1.27349        -0.69719        -1.92202
C          0.02602        -1.48716        -1.85652
C          1.25356        -0.81567        -1.28632
C          2.59959        -1.46555        -1.53079
C          3.86627        -0.70009        -1.17755
C          5.18550        -1.42268        -1.09344
C          6.25486        -0.79924        -0.18675
C          7.55153        -1.50826         0.10704
C          8.77242        -0.69688         0.45049
C         10.15753        -1.36867         0.25055
C         11.22639        -0.45754        -0.23436
C         -9.81209        -2.30448         0.49781
C         -8.48904        -3.00821         0.65386
C         -7.60197        -2.61912        -0.53263
C         -6.36341        -3.42222        -0.73896
C         -5.18973        -2.87513        -1.55636
C         -3.86251        -3.64371        -1.45989
C         -2.58008        -2.93181        -1.80087
C         -1.29589        -3.57297        -1.32101
C          0.01860        -2.98362        -1.77512
C          1.31574        -3.80794        -1.61864
C          2.61896        -2.96613        -1.59901
C          3.91110        -3.79191        -1.44088
C          5.21332        -2.92903        -1.29977
C          6.47736        -3.60621        -0.86584
C          7.70451        -2.74132        -0.73967
C          9.15384        -3.68637         0.29811
C         10.19828        -2.78224        -0.15720
C         -8.71572        -4.52667         0.76586
C         -7.89931        -5.45114         1.24962
C         -5.87949        -4.34586         0.34108
C         -5.10659        -5.53322        -0.16215
C         -3.81620        -4.97778        -0.76635
C         -2.58153        -5.53321        -0.08023
C         -1.28787        -4.83007        -0.49176
C          0.01976        -5.53977        -0.17731
C          1.31701        -4.90200        -0.55605
C          2.58336        -5.76020        -0.50659
C          3.81699        -4.83153        -0.29130
C          5.09188        -5.64810        -0.11073
C          6.34596        -4.80775         0.10511
C          7.66962        -5.68139         0.03082
C          8.81917        -4.91078        -0.39471
C         -7.26284        -6.46553         1.81640
C         -6.44415        -7.52020         1.05100
C         -5.18906        -6.94486         0.32681
C         -3.87152        -7.71373         0.37820
C         -2.59461        -7.06248        -0.06686
C         -1.28603        -7.76777         0.19267
C          0.01836        -7.02768         0.06240
C          1.25372        -7.65996         0.55959
C          2.48838        -6.86060         0.54292
C          3.78295        -7.56131         0.80940
C          5.05893        -6.88298         0.43942
C          6.29474        -7.42394         1.14224
C          7.57460        -6.95666         0.46569
C         -6.13515        -8.73577         1.90119
C         -4.94523        -9.34397         1.99213
C         -3.67504        -8.66129         1.56101
C         -2.44501        -9.53677         1.45009
C         -1.29646        -9.06382         0.91802
C         -0.00543        -9.86030         0.88044
C          1.26851        -9.01626         0.96777
C          2.47305        -9.65306         1.26133
C          3.79119        -9.07084         0.82224
C          5.06097        -9.60915         1.44390
C          6.20380        -8.90505         1.44393
O          3.62668        -4.08162         0.91219
H          4.50301        -4.06135         1.40506
O          3.26622         1.60034        -1.62640
O          2.86742         2.49915         1.68043
O         -8.34794         0.64435         0.49798
O         -0.87693         6.09172         2.02249
O          0.10079        -2.30646        -3.05710
O         -8.28628        -2.38417        -1.78366
O         -8.71292         1.02006        -2.96920
O         -3.35978        -7.92674        -0.95943
O        -10.65537         2.83172        -1.40643
H         -9.98386         3.30270        -1.98161
O          7.36282         3.06482         1.93607
O         -8.53262         3.83087        -2.44059
O          2.07124         6.05407         2.75198
O         -2.85772         1.73131         0.05607
O          3.41127         8.58658         2.67360
H          4.23469         8.28505         3.12923
O          9.58816        -1.14044         1.57954
O          3.11917        -6.81842         1.86725
O         -1.29795        -3.50573         0.15006
O          6.21235        -4.28908         1.36576
O          0.41873         2.56393        -1.87229
O          4.47973         4.93136         2.24047
O         -5.81581         1.34538        -3.24174
O         -6.18074        -3.76465        -2.12595
O         -0.52580        -7.81367        -1.07020
O          6.46890        -1.54325         1.05947
O         -2.63867        -2.36205        -3.13785
O         -7.83300        -2.50942         1.83232
H         -8.33052        -2.80984         2.61959
O          5.32669         5.52744        -1.23763
O          0.97925        -0.55108         0.14388
O          5.64364         7.61223         2.19014
O          8.74504        -3.62723         1.58174
H          9.01130        -2.76314         1.98486
O         -7.60438         5.79653        -1.30803
O         -1.11234         0.31032        -2.97207
O          2.69684        -2.14251        -2.80883
O          9.46643         1.43046         1.41515
O         -3.34118         5.80768         1.24760
H         -2.58807         5.92161         1.88830
O          0.04837       -10.55171        -0.37858
H         -0.07879        -9.87532        -1.08334
O         -3.86065        -4.92375        -2.19783
O          4.02921        -4.51238        -2.67505
H          4.01253        -3.85400        -3.40349
O         -5.63001        -6.55830        -1.02582
O          5.35499         3.05391        -1.11751
O          0.64208         8.63981         2.41006
H          1.47641         8.70256         2.93199
O          6.14077        -3.54881        -2.28360
O         -2.74813        -5.24080         1.33154
H         -2.39019        -4.34022         1.50887
O         -3.77343        -0.72460        -0.14379
H         -4.46917        -0.15691         0.25181
O         -1.13083         4.74384        -1.52208
O          0.78183        -4.71790         0.76777
O          4.84951        -0.65395        -2.26937
O          3.86928        -9.44035        -0.60084
H          3.80969       -10.41668        -0.66791
O          6.30924        -6.78532         2.44679
H          6.30180        -5.79529         2.28771
O          3.33991         9.08531        -1.95163
H          5.18460         4.70753        -1.77412
O         -3.85496         9.32090        -0.86015
O          0.47754         3.53898         1.79103
O          4.58096         0.72060         1.63986
H          5.22060         1.11255         2.27244
O         -3.44532         0.75560        -3.47198
H         -4.28064         0.73581        -3.99707
O         -3.36937        -7.72193         2.65102
H         -3.37557        -8.21943         3.49558
O          8.25268        -2.41326        -1.94214
H          7.76404        -2.91650        -2.64505
O         -5.51319         2.52084         0.14563
H         -4.68585         2.18873         0.57168
O          1.36410        -4.55763        -2.85905
H          1.27122        -3.89854        -3.58641
O         -5.70593        -3.93445         1.48121
O         -6.15910         4.00271        -3.11970
H         -7.10568         4.13065        -3.43390
O          1.28820         7.62165        -1.03319
H          1.69094         8.05810        -1.82183
O         -7.31682        -8.06187         0.03931
H         -7.17251        -7.54202        -0.78669
O         -2.09464         7.15547        -1.96109
H         -2.86573         6.91285        -2.52366
O          2.71481        -6.53465        -1.70184
H          2.78680        -5.92389        -2.47602
O         -4.87343         6.30935        -2.54128
H         -5.24433         5.58071        -3.11029
H         12.14981        -0.93694        -0.59238
H         11.91705         1.44979        -0.83734
H         10.29169         3.39913        -1.23809
H          9.31044         5.70768        -0.13432
H          8.08506         7.75688         0.30177
H          6.83124         9.91402         0.58556
H          5.12295        10.93556        -0.78660
H          2.72757         9.91066         0.96921
H          0.52965        10.71455         0.12177
H         -1.91372         9.39783         1.98446
H         -4.55837        10.16151         2.25074
H         -6.61516         8.83619         2.24702
H         -7.73742         6.74706         1.77982
H         -8.50874         4.28335         1.64138
H         -9.57119         2.15710         1.35232
H        -12.28089         1.39270        -0.39284
H        -12.11376        -1.01613         0.20955
H        -10.70900        -2.77360         0.93245
H         -9.71168        -4.87367         0.42881
H         -7.39552        -6.62059         2.90258
H         -7.02271        -9.23723         2.31765
H         -4.85497       -10.28906         2.55183
H         -2.45155       -10.51248         1.96258
H         -0.00580       -10.63536         1.68760
H          2.44897       -10.71151         1.56946
H          5.06722       -10.66625         1.75719
H          7.11947        -9.37626         1.83600
H          8.48356        -7.56741         0.58573
H          9.23568        -5.06351        -1.40592
H         10.58888        -2.96640        -1.17102
