         280
 CSIRO Nanostructure Databank - Neutral Graphene Oxide Data Set
C         30.67182        31.58686         2.14687
C         30.69246        32.82738         2.01377
C         30.51116        35.90611         1.23761
C         30.37599        37.11713         1.02219
C         30.28179        40.23535        -0.00770
C         30.09859        41.48159        -0.06771
C         33.10363        28.82310         1.50659
C         31.99850        29.36129         1.81769
C         33.00006        31.49503         1.51091
C         31.81741        30.75126         1.86942
C         33.05464        32.99773         1.85172
C         31.72701        33.74513         1.68987
C         32.86304        35.84393         0.95567
C         31.66909        35.06370         1.33532
C         32.77370        37.19025         0.58897
C         31.41672        37.90554         0.26460
C         32.73141        40.12261         0.29047
C         31.41345        39.41091         0.46507
C         32.88571        41.47234        -0.34050
C         30.87232        42.48855        -0.68011
C         32.50187        44.28515        -0.40791
C         31.36522        43.74925        -0.30700
C         35.59262        27.35909         0.32427
C         35.62505        28.74149         0.92334
C         34.29766        29.42115         1.09335
C         35.26348        31.65893         0.40963
C         34.18202        30.83639         1.09485
C         35.51650        32.97422         1.17410
C         34.20895        33.75702         1.24374
C         35.37712        35.84012         0.73557
C         34.13962        35.10763         0.98279
C         35.27831        37.27203         0.37211
C         33.98130        37.98500         0.45736
C         35.24255        40.15827         0.79367
C         33.99214        39.36008         0.39051
C         35.14748        41.69674         0.62708
C         33.91051        42.29968         0.03472
C         35.12794        44.57028        -0.18553
C         33.84277        43.80338        -0.05622
C         35.30539        45.89461        -0.83062
C         37.60694        27.39215        -1.06715
C         36.53046        26.81195        -0.26050
C         37.63344        28.88622        -0.82526
C         36.59941        29.55339         0.03635
C         37.62294        31.72721        -0.62241
C         36.53424        30.90660         0.05777
C         37.69775        33.14789        -0.09989
C         36.66170        33.74754         0.55915
C         37.86738        35.93855         0.56494
C         36.59359        35.19796         0.66219
C         37.84238        37.46651         0.44577
C         36.50724        38.07648         0.13305
C         37.81311        40.19345         0.49541
C         36.46115        39.61147         0.01262
C         37.77106        41.73667         0.57951
C         36.44271        42.46334         0.45562
C         37.74413        44.60564        -0.19940
C         36.46998        43.76057        -0.36561
C         37.75927        45.94814        -0.59440
C         36.42863        46.41196        -0.90771
C         40.10642        24.64685        -1.46475
C         39.05523        25.34100        -1.56841
C         40.13618        27.34144        -0.97037
C         38.89169        26.70708        -1.30008
C         40.18308        28.80977        -0.80396
C         38.94128        29.61737        -1.17895
C         40.15339        31.70037        -0.59346
C         38.97738        31.03465        -0.63861
C         40.24688        33.15812        -0.22713
C         38.91151        33.91805        -0.58777
C         40.29993        36.03985        -0.04473
C         39.03143        35.25855         0.04190
C         39.93505        37.32066        -0.78447
C         38.95289        38.12640        -0.29190
C         40.28047        40.36471        -0.39727
C         38.95236        39.61397        -0.35420
C         40.37667        41.70853         0.37952
C         39.05296        42.52502         0.55147
C         40.26884        44.76807        -0.00700
C         39.00204        44.09345         0.51009
C         40.24187        46.04731        -0.50699
C         38.95313        46.72249        -0.65815
C         40.17747        48.70771        -1.29875
C         39.11323        48.05168        -1.09756
C         42.54801        24.43906        -0.63836
C         41.35321        25.14139        -1.02557
C         42.47266        27.28125        -0.10941
C         41.32181        26.57482        -0.83211
C         42.66470        28.74054        -0.57338
C         41.35092        29.48257        -0.57262
C         42.68337        31.71205        -0.37191
C         41.46253        30.96350        -0.93482
C         42.72054        33.07419        -0.38922
C         41.50373        33.85146        -0.86737
C         42.77719        36.01322        -0.47668
C         41.56524        35.33353        -0.49818
C         42.88638        37.47890        -0.57531
C         41.75624        38.34858        -0.93046
C         42.86533        40.30643        -0.02255
C         41.58726        39.63824        -0.49792
C         42.88919        41.78889        -0.49707
C         41.52628        42.49739        -0.24063
C         42.83402        44.69001        -0.10508
C         41.51458        43.97799        -0.22122
C         42.78984        46.13921        -0.47379
C         41.50554        46.64038        -1.14433
C         42.77145        48.73458        -1.47382
C         41.49804        48.24341        -1.32807
C         43.54264        25.22409        -0.37121
C         45.11324        27.22907        -0.60132
C         43.83360        26.53775        -0.21315
C         45.15263        28.78072        -0.26554
C         43.82740        29.38093         0.26358
C         45.11518        31.64998         0.45164
C         43.72635        30.95678         0.44952
C         45.18848        33.07210        -0.09391
C         43.88568        33.83198         0.24903
C         45.23967        35.90613        -0.11555
C         44.01274        35.27916        -0.20327
C         45.34735        37.34881        -0.42458
C         44.09113        38.10841        -0.42784
C         45.37052        40.23782         0.07309
C         44.11954        39.60795        -0.61018
C         45.33203        41.77245         0.06155
C         44.15784        42.50030         0.00047
C         45.31603        44.69866         0.03679
C         44.14853        43.96580        -0.01941
C         45.31413        46.26079        -0.03927
C         44.10533        46.81970        -0.74320
C         43.85347        48.06739        -1.22543
C         47.44541        27.27656         0.33607
C         46.37107        26.74023         0.05831
C         47.62426        28.69097         0.80538
C         46.40545        29.43137         0.21613
C         47.68347        31.61200         0.04954
C         46.40298        30.90030         0.51739
C         47.73503        33.04362         0.62923
C         46.47048        33.80642         0.26513
C         47.75346        35.89407         0.24989
C         46.49758        35.19117         0.14051
C         47.79215        37.41381         0.39155
C         46.64905        38.09127        -0.36939
C         47.93052        40.25139         0.09485
C         46.65683        39.64464        -0.52681
C         47.92219        41.77157        -0.05931
C         46.63045        42.44554         0.28114
C         47.90049        44.62596        -0.06922
C         46.60644        43.99003         0.27134
C         47.64189        45.91215        -0.52512
C         46.62332        46.62621        -0.71645
C         50.16935        28.83584         0.36192
C         48.89936        29.40230         0.43971
C         50.19832        31.48386         0.03936
C         48.96925        30.81846         0.27726
C         50.21600        33.00649        -0.20684
C         49.00891        33.78303         0.28354
C         50.10844        36.03948         0.94823
C         48.98126        35.17766         0.34990
C         50.30371        37.41816         0.27749
C         49.13143        38.08555         0.06580
C         50.41983        40.28791        -0.07414
C         49.17260        39.52030        -0.45408
C         50.36759        41.66297        -0.10666
C         49.11358        42.43883        -0.13153
C         49.55881        43.94839         1.70122
C         49.20190        43.94460         0.19894
C         51.29309        29.35826         0.09773
C         52.56118        31.57563        -0.36460
C         51.42322        30.73728        -0.12089
C         52.62669        32.81403        -0.48306
C         51.58340        33.63944         0.17933
C         52.66848        36.03210         0.30429
C         51.75437        35.04298         0.63498
C         52.75974        37.32721         0.18406
C         51.57923        38.09277         0.28823
C         51.75282        39.96953         1.97375
C         51.64785        39.58415         0.48502
C         51.39775        41.08804         2.46126
C         50.89841        42.18009         3.11279
C         50.27055        43.07144         2.29416
O         46.26243        37.50373        -1.63193
O         50.00424        36.11105         2.20903
O         51.88810        33.95971         1.54118
O         39.35659        40.34360        -1.53019
O         46.68717        43.22902         1.51480
O         31.97913        41.82765        -1.36787
O         46.08562        29.38162        -1.23609
O         35.73678        42.45073         1.72533
O         35.86677        37.45227        -1.01799
O         41.68047        30.96566        -2.31563
O         41.18403        43.22504        -1.46255
O         37.06006        28.29191        -2.06487
O         34.48527        44.49974         1.06634
O         42.68802        45.75053         0.92540
O         38.42365        42.13413         1.81806
O         38.04944        36.87825         1.73394
O         40.79249        37.75789        -1.77356
O         43.13454        31.21108         1.70932
O         45.79718        31.40501         1.73004
O         32.02430        40.03477         1.61822
O         45.44728        39.81758         1.45284
H         44.59813        40.04784         1.90761
O         38.90742        44.55666         1.87816
H         38.29627        43.95273         2.36092
O         36.45511        43.30008        -1.74000
H         36.54068        44.07910        -2.33035
O         34.69588        32.04117        -0.87249
H         35.40023        31.99195        -1.56377
O         43.08476        28.73934        -1.94902
H         42.66358        29.54198        -2.38795
O         50.14217        33.17291        -1.65356
H         49.30953        32.73561        -1.95395
O         38.81761        34.05887        -2.03164
H         38.28878        33.28595        -2.36717
O         44.12020        39.73617        -2.03425
H         45.02500        39.52092        -2.36724
O         40.61792        36.51331         1.30701
H         40.70532        35.72010         1.88046
O         46.66639        40.00189        -1.91479
H         47.42910        39.55583        -2.35355
O         51.51209        42.38470         0.04090
H         52.28485        41.76397         0.04651
O         41.57590        46.12863        -2.48638
H         40.75933        46.38114        -2.96611
O         49.15890        39.44322        -1.91159
H         50.03044        39.10460        -2.20706
O         40.75437        41.41041         1.73818
H         39.91834        41.20531         2.23112
O         47.46943        28.76114         2.21971
H         48.21883        28.29753         2.64662
O         35.91478        32.61267         2.52840
H         36.39632        33.37005         2.92405
O         36.29082        39.98209        -1.35569
H         35.98407        39.18485        -1.84940
O         45.19206        32.99283        -1.54072
H         46.06616        32.63516        -1.83169
O         31.19506        37.74603        -1.13380
H         31.06957        36.79535        -1.33477
O         42.02473        27.27779         1.25586
H         41.95791        26.34976         1.56300
O         47.54722        37.59904         1.81132
H         48.29880        37.17499         2.29738
O         47.80841        32.96186         2.07817
H         46.95909        32.56608         2.40115
O         38.09046        39.69983         1.81386
H         37.30113        39.87244         2.38327
O         45.21685        27.06781        -2.00230
H         45.72052        27.83420        -2.35885
O         37.25183        31.85687        -2.05021
H         37.71922        31.11480        -2.53355
O         36.24256        28.67426         2.21339
H         35.61929        28.24627         2.83702
O         45.33711        46.76835         1.29297
H         44.43149        46.66657         1.66631
O         52.84051        40.08025        -0.14064
H         53.56467        39.44176         0.05442
O         48.02905        40.07455         1.51289
H         47.11709        40.06418         1.90153
O         50.20934        44.62379        -0.51501
H         51.06785        44.17429        -0.34544
O         43.83747        28.86266         1.59524
H         43.49017        29.60543         2.16891
O         40.38024        33.26612         1.20856
H         41.16984        32.74473         1.48727
O         47.60501        31.74826        -1.40586
H         47.33518        30.87169        -1.77193
O         33.31915        33.02327         3.28905
H         34.23339        32.66696         3.41482
O         43.08755        41.80663        -1.91715
H         42.49038        42.48068        -2.31805
O         41.45415        33.79684        -2.29568
H         40.53503        34.00634        -2.58915
O         43.68795        33.84218         1.67275
H         43.50456        32.88909         1.94395
O         42.98443        40.21267         1.40706
H         42.13501        40.48738         1.83500
O         35.45045        39.87590         2.19466
H         34.82194        40.41817         2.71856
O         38.94407        29.80348        -2.62398
H         38.53628        28.99945        -3.02596
