         294
 CSIRO Nanostructure Databank - Neutral Graphene Oxide Data Set
C          1.25238         2.20952         0.65137
C          1.22148         3.56559         0.65839
C          2.48105         1.48127         0.52079
C          2.46970         4.40201         0.61711
C          1.18092         6.37533        -0.45500
C          1.18478         7.75902        -0.47958
C          2.41987         5.53449        -0.45744
C          2.33911         8.53720        -0.30608
C          1.13816        10.77864        -0.71769
C          1.15172        12.12112        -0.78847
C          2.21147        10.01544         0.03321
C          2.17512        12.95859        -0.09407
C          1.27003        15.08633        -1.28601
C          1.43010        16.33538        -1.74888
C          2.17387        14.50014        -0.21936
C          2.67627        17.10534        -1.50395
C          2.66789        18.58751        -1.38798
C          3.69114         2.13901         0.38605
C          3.73462         3.58857         0.36802
C          4.91743         1.41112         0.15316
C          4.93757         4.22835         0.16992
C          3.70349         6.39048        -0.31901
C          3.58067         7.82738         0.18478
C          5.00412         5.69643        -0.07051
C          4.90212         8.61488        -0.06797
C          3.54563        10.80452        -0.18442
C          3.41635        12.23435         0.36227
C          4.70557        10.04322         0.43800
C          4.68425        12.97123         0.62737
C          3.59548        15.04042        -0.29187
C          3.80845        16.38834        -0.80840
C          4.56888        14.48737         0.71881
C          4.85168        17.25903        -0.11969
C          3.77141        19.28957        -1.06400
C          5.09996        18.58886        -0.87890
C          6.12309         2.04265         0.03936
C          6.18833         3.48839         0.20581
C          7.39447         1.24647        -0.17925
C          7.36098         4.13373         0.53194
C          6.32379         6.44750         0.24191
C          6.04639         7.90823         0.65370
C          7.31883         5.54780         1.09665
C          6.86953         8.64632         1.43742
C          5.82324        10.82473         1.05049
C          5.84043        12.29541         0.89009
C          7.09543        10.12808         1.49855
C          7.19780        12.93612         0.63890
C          5.94454        15.17314         0.79659
C          6.16132        16.47185         0.03514
C          7.19202        14.40063         1.04534
C          7.31388        17.30645         0.50724
C          6.20545        19.37227        -0.22489
C          7.36216        18.69146         0.20329
C          8.57909         2.18708        -0.45896
C          8.64135         3.32583         0.58135
C          9.88667         1.44507        -0.60189
C          9.88116         4.15500         0.32597
C          8.69932         6.19527         1.02469
C          8.80576         7.52667         1.43511
C          9.85054         5.51120         0.50533
C          9.82599         8.43034         1.04915
C          8.36824        10.62533         0.64262
C          8.47474        12.14475         0.93786
C          9.75745         9.85975         0.95494
C          9.66549        12.79831         0.86409
C          8.51231        15.11891         1.11110
C          8.57353        16.65926         1.04441
C          9.75132        14.29271         1.01374
C          9.71701        17.11054         0.10567
C          8.64866        19.36719         0.24456
C          9.82866        18.63562         0.09834
C         11.08919         2.05871        -0.45212
C         11.19511         3.41177         0.21709
C         12.33560         1.42138        -0.83681
C         12.36467         4.23146        -0.29293
C         11.02329         6.36897         0.08514
C         11.12650         7.65805         0.92094
C         12.36009         5.64816        -0.00251
C         12.31376         8.51034         0.45789
C         10.94843        10.57986         0.84893
C         10.91865        12.03860         0.56320
C         12.30236         9.89659         1.14865
C         12.20992        12.77371         0.36090
C         11.06180        15.02606         0.83829
C         11.09989        16.54209         0.53461
C         12.31127        14.24377         0.65761
C         12.15769        17.00899        -0.52543
C         11.09237        19.24485        -0.07051
C         12.29711        18.52275        -0.36142
C         13.50316         2.12876        -0.94857
C         13.50795         3.56592        -0.71718
C         14.72599         1.46123        -1.56358
C         14.70586         4.34288        -1.08635
C         13.54439         6.36073         0.04791
C         13.62221         7.72093         0.71718
C         14.72562         5.79601        -0.61286
C         14.84424         8.53377         0.38316
C         13.54763        10.61827         0.66270
C         13.50148        12.01449         0.27695
C         14.78847         9.92930         0.47676
C         14.82031        12.77279         0.18791
C         13.58193        14.99571         0.33025
C         13.50130        16.28780        -0.42377
C         14.86436        14.25494         0.26998
C         14.80552        16.98134        -0.75400
C         13.50837        19.14933        -0.55244
C         14.73423        18.46227        -1.13979
C         16.03760         2.14320        -1.24544
C         16.07288         3.66596        -1.37098
C         17.21270         1.46912        -1.13892
C         17.16729         4.21878        -0.39125
C         16.05290         6.49796        -0.50286
C         16.12775         7.75588         0.34409
C         17.33007         5.72653        -0.58039
C         17.37620         8.53849         0.02192
C         16.03875        10.69082         0.40973
C         16.08274        12.05947         0.40324
C         17.33148         9.99059         0.26749
C         17.33298        12.82926         0.45270
C         16.13258        14.87107        -0.33639
C         16.03284        16.36859        -0.22207
C         17.32613        14.22561         0.31828
C         17.19034        17.18471         0.06361
C         16.04471        19.17928        -0.90872
C         17.20863        18.56238        -0.50069
C         18.47398         2.15052        -0.85032
C         18.46276         3.47298        -0.49465
C         19.74732         1.42290        -0.81498
C         19.66117         4.00493         0.27271
C         18.70014         6.36844        -0.30047
C         18.65101         7.79392         0.21981
C         19.66970         5.52480         0.49685
C         19.77097         8.42329         0.64250
C         18.55386        10.68740         0.75329
C         18.56715        12.14701         0.59984
C         19.80690         9.89853         0.91429
C         19.81763        12.84283         0.46917
C         18.54493        14.98277         0.78623
C         18.53026        16.47819         0.42341
C         19.80903        14.25034         0.39707
C         19.75776        17.12654        -0.05085
C         18.47711        19.20712        -0.57517
C         19.69741        18.50650        -0.45296
C         20.92045         2.05311        -0.59732
C         20.96483         3.55807        -0.41713
C         22.15674         4.08187         0.37220
C         20.95836         6.18855         0.86275
C         21.10103         7.72503         0.88969
C         22.15890         5.30741         0.92612
C         22.07768         8.42355        -0.03561
C         21.15915        10.61506         0.78010
C         21.03851        12.08979         0.36200
C         22.07959         9.76736        -0.09060
C         22.22841        12.82254         0.09026
C         21.08974        15.02344         0.50491
C         20.99258        16.42669        -0.09592
C         22.25899        14.19274         0.05653
C         22.14592        17.11329        -0.48184
C         20.91061        19.16753        -0.81441
C         22.10238        18.47600        -0.84133
O          6.42371        14.96560         2.16753
O         16.78394         6.39023        -1.75502
O         14.15433        12.31027        -1.02487
O         14.48675        14.93433         1.49241
O          4.57832         6.12385        -1.45319
O          4.71361        10.26881         1.87395
O         19.04038        10.26264         2.10910
O          7.77331         7.97013         2.26903
O         17.76464        17.20517         1.43729
O         14.40872         5.42684        -1.99834
O          9.18633        14.66901         2.33485
O         11.88952        14.64315         1.99153
O          3.78096        16.53736        -2.30243
O          8.10117        10.49583        -0.69201
O         14.10579        16.11768        -1.76758
O         11.38047        12.44551        -0.79792
O          2.34007        12.52516         1.31467
O         17.41737         9.43536        -1.11927
O         16.46752         3.87566        -2.67803
O         19.90723         5.87113         1.88834
O         14.55346        18.55048        -2.58922
H         14.29053        17.65632        -2.90652
O         21.74616        10.72763         2.09904
H         21.00259        10.74104         2.74317
O         11.67744        16.75340        -1.86181
H         12.46436        16.58796        -2.43318
O          1.58970        15.02477         1.00867
H          2.06439        14.58139         1.75438
O          5.64279        18.31619        -2.20955
H          4.96643        17.75976        -2.68290
O         14.76970         0.07881        -1.21039
H         14.86091         0.01133        -0.23808
O          4.34820        17.59562         1.18592
H          4.08915        16.76146         1.64818
O          1.88583         9.97323         1.44947
H          1.87529        10.91233         1.77268
O          6.57147        16.00667        -1.27813
H          6.64933        16.80214        -1.86397
O         10.69607         6.74488        -1.28691
H         10.64966         5.92993        -1.83062
O         16.22186        14.49730        -1.73753
H         15.38418        14.77868        -2.17535
O          3.43358         7.71231         1.62041
H          2.97545         8.52996         1.94264
O         13.78709         7.46149         2.16503
H         13.61602         8.33114         2.61914
O          8.75720         2.73185         1.91999
H          8.42056         3.39764         2.56024
O          8.82592        17.17098         2.37204
H          8.57347        16.46898         3.01364
O         21.30370        15.24657         1.95486
H         20.41446        15.18198         2.38916
O         18.52980        14.93458         2.26690
H         17.96001        15.68940         2.55625
O          3.75677        10.97313        -1.59729
H          4.30491        10.21598        -1.92431
O          2.60530         5.05993         1.89909
H          2.65756         4.37213         2.59437
O          8.33222         2.85011        -1.72792
H          8.42109         2.18879        -2.44526
O         11.49297        17.20602         1.74336
H         10.74258        17.13301         2.38220
O          2.42146         4.85916        -1.73498
H          3.30036         5.03433        -2.15189
O         19.56923         3.38121         1.57909
H         19.86227         4.06340         2.23327
O         21.03554         4.14245        -1.74106
H         20.47493         4.95776        -1.77928
O         19.35137         6.44158        -1.60914
H         18.64561         6.66144        -2.26518
O          5.14969         8.69840        -1.49009
H          5.00624         7.78923        -1.86509
O          3.96199        14.75822         2.03982
H          4.66815        14.56042         2.70287
O         12.25577         8.81984        -0.93443
H         11.77988         8.10638        -1.42554
O         16.40102         7.28348         1.70423
H         15.53598         7.07054         2.13742
O          9.26606        16.61707        -1.16024
H          9.93634        16.82176        -1.85344
O         11.30219         7.23350         2.30490
H         12.16193         6.74835         2.38821
O         21.50690         8.02753         2.24297
H         20.85565         7.59480         2.83713
O         12.41702         9.72302         2.59119
H         11.68192         9.12556         2.87525
O          7.36303        10.52681         2.85449
H          6.54472        10.37653         3.37455
O          7.25044        12.98644        -0.81961
H          7.53788        12.06525        -1.11381
O          7.05563         6.56415        -1.00681
H          6.84969         7.42711        -1.42830
O          7.66774         0.40571         0.94568
H          7.98469         0.98972         1.67370
O         11.53590         3.11517         1.61999
H         10.74374         2.67019         2.00708
O          6.87793         5.43237         2.46267
H          6.96303         6.32771         2.86959
O         16.68723         4.05035         0.97066
H         17.42055         3.66691         1.50660
H          0.31468         1.64013         0.73039
H          0.26292         4.09170         0.77732
H          2.45197         0.38284         0.49701
H          0.22325         5.84999        -0.58469
H          0.21862         8.27149        -0.60711
H          0.33250        10.22463        -1.22278
H          0.35577        12.62976        -1.35148
H          0.33562        14.55619        -1.52176
H          0.67337        16.78348        -2.41201
H          1.70497        19.10113        -1.53307
H          4.86595         0.31459         0.07831
H          3.72398        20.38591        -0.98003
H          7.25183         0.57118        -1.06563
H          6.25091        20.46124        -0.38405
H          9.84658         0.41984        -1.00549
H          8.67226        20.46612         0.17679
H         12.31273         0.36602        -1.14959
H         11.15277        20.34402        -0.01595
H         14.59335         1.50366        -2.68111
H         13.55294        20.24650        -0.46458
H         17.21751         0.36865        -1.18729
H         16.11461        20.18465        -1.35311
H         19.72477         0.33706        -0.99405
H         18.50893        20.27241        -0.84954
H         21.86801         1.49292        -0.61867
H         23.06561         3.46114         0.42394
H         23.05204         5.69246         1.44260
H         22.76153         7.83525        -0.66631
H         22.78614        10.28124        -0.76073
H         23.15970        12.26659        -0.09592
H         23.21680        14.68713        -0.16234
H         23.12116        16.60878        -0.46914
H         20.87341        20.22912        -1.09722
H         23.03171        18.98667        -1.12875
