         424
 CSIRO Nanostructure Databank - Neutral Graphene Oxide Data Set
C          1.28125         2.16743        -1.18113
C          1.28456         3.59275        -1.25017
C          2.45500         1.46854        -1.06803
C          2.46141         4.30404        -1.17957
C          1.26112         6.55226        -1.35171
C          1.26143         7.89833        -1.03400
C          2.54691         5.79431        -1.46583
C          2.40166         8.57984        -0.58259
C          1.34390        10.85893        -0.84830
C          1.34527        12.18140        -0.66010
C          2.28599         9.98518        -0.05257
C          2.27892        12.78312         0.37360
C          1.16785        15.01194         0.19968
C          1.15984        16.41912         0.05146
C          2.36096        14.28952         0.27406
C          2.33694        17.14336         0.12330
C          2.38240        18.55056        -0.14649
C          3.71118         2.15432        -0.99158
C          3.71765         3.60476        -1.03789
C          4.90301         1.45025        -0.80944
C          4.91202         4.31624        -0.89838
C          3.69742         6.43587        -0.73130
C          3.57405         7.78554        -0.09087
C          4.89404         5.74082        -0.64263
C          4.87117         8.55513        -0.06350
C          3.62327        10.69344         0.10673
C          3.62036        12.07332         0.27778
C          4.85526         9.96065         0.09570
C          4.84326        12.80047         0.38372
C          3.60719        14.95908         0.34595
C          3.58361        16.44946         0.62635
C          4.82626        14.23927         0.40321
C          4.83948        17.16067         0.22758
C          3.56689        19.22678        -0.21788
C          4.83730        18.53634        -0.06449
C          6.15198         2.11273        -0.69805
C          6.22977         3.59886        -0.98615
C          7.33165         1.41236        -0.50756
C          7.33748         4.29766        -0.24903
C          6.11003         6.42738        -0.25912
C          6.09590         7.83801        -0.05682
C          7.32565         5.67834        -0.08914
C          7.33430         8.54421         0.16233
C          6.09083        10.67706         0.26809
C          6.08213        12.09603         0.40825
C          7.32655         9.96561         0.30136
C          7.31873        12.80774         0.61530
C          6.08151        14.93606         0.45569
C          6.10451        16.38412         0.01624
C          7.27651        14.25298         0.64096
C          7.31604        17.15174         0.49085
C          6.04758        19.23674        -0.27257
C          7.30598        18.67863         0.20172
C          8.56962         2.08211        -0.24445
C          8.49043         3.49801         0.28644
C          9.77279         1.41921        -0.26653
C          9.80021         4.24276         0.20819
C          8.56293         6.39201         0.19951
C          8.55661         7.81955         0.25475
C          9.78474         5.67872         0.24976
C          9.79500         8.53767         0.38027
C          8.55318        10.68404         0.49863
C          8.53773        12.09670         0.68118
C          9.79307         9.95907         0.48559
C          9.82473        12.75834         1.17229
C          8.54144        15.01416         0.82319
C          8.59822        16.45215         0.47403
C          9.83424        14.28539         1.03897
C          9.79923        17.14695         0.42879
C          8.60047        19.28328        -0.04150
C          9.79516        18.58506         0.15027
C         11.01920         2.07964         0.05733
C         10.99135         3.53574         0.23194
C         12.20046         1.38585         0.13685
C         12.25424         4.24271         0.26120
C         11.03142         6.39087         0.28501
C         11.02726         7.82021         0.35418
C         12.25579         5.68413         0.26496
C         12.26855         8.52835         0.38655
C         11.04587        10.65691         0.52396
C         11.07036        12.10755         0.62091
C         12.24842         9.94575         0.45741
C         12.22500        12.82590         0.38023
C         11.07984        15.00162         0.65451
C         11.05738        16.43250         0.46739
C         12.23497        14.27011         0.39037
C         12.26503        17.14469         0.27185
C         11.03565        19.25660        -0.01358
C         12.25948        18.57445         0.06721
C         13.45135         2.06824         0.62136
C         13.44485         3.52692         0.24014
C         14.74431         1.34454         0.35321
C         14.70212         4.24230         0.05838
C         13.50557         6.39713         0.28826
C         13.50697         7.82098         0.32473
C         14.73064         5.69784         0.21852
C         14.76359         8.52337         0.23099
C         13.52976        10.71315         0.62914
C         13.45728        12.05913        -0.08809
C         14.77518         9.93901         0.27539
C         14.77363        12.78556         0.08823
C         13.47273        15.00082         0.04021
C         13.52019        16.46726         0.24521
C         14.76726        14.24836        -0.10497
C         14.73983        17.16462         0.27804
C         13.49284        19.24301        -0.12334
C         14.74038        18.60945         0.03401
C         15.95802         2.00131         0.27331
C         15.98693         3.47905         0.06609
C         17.21446         1.34376         0.28306
C         17.21531         4.23376         0.53066
C         15.98958         6.38000         0.12137
C         15.98575         7.81962         0.08247
C         17.19976         5.67200         0.07924
C         17.24365         8.52526         0.01119
C         15.98829        10.64360         0.17066
C         15.94946        12.10123         0.15617
C         17.22453         9.96222         0.06427
C         17.25430        12.82152        -0.07825
C         16.01796        14.98166         0.16420
C         15.96811        16.38819         0.39931
C         17.21383        14.27253         0.31512
C         17.17934        16.98277         0.77297
C         15.91032        19.38285        -0.28370
C         17.19570        19.05442         0.19224
C         18.45079         2.05455         0.20828
C         18.47754         3.48858         0.20575
C         19.67590         1.35076         0.15138
C         19.69244         4.19875         0.12939
C         18.45609         6.35055        -0.37709
C         18.45649         7.83038        -0.10747
C         19.71843         5.64018         0.05455
C         19.75370         8.56747        -0.34523
C         18.47335        10.68785         0.21569
C         18.44425        12.06282         0.43109
C         19.72420         9.98453         0.17697
C         19.62165        12.77024         1.03437
C         18.44802        14.94999         0.50929
C         18.44313        16.37267         0.60162
C         19.68066        14.24847         0.67455
C         19.64965        17.13616         0.46463
C         18.47980        19.30995        -0.28986
C         19.65526        18.54469         0.08117
C         20.91566         2.03322         0.12198
C         20.91938         3.46842         0.12531
C         22.14981         1.33756         0.09701
C         22.15421         4.17339         0.10110
C         20.92676         6.33437         0.17876
C         20.98152         7.80224         0.13010
C         22.15873         5.60855         0.22758
C         22.14629         8.46838         0.36245
C         20.92575        10.68554         0.39518
C         20.91384        12.02874         0.79703
C         22.24792         9.97091         0.15250
C         22.14361        12.74710         1.11371
C         20.85986        14.98116         0.73618
C         20.87400        16.40597         0.49741
C         22.13263        14.29955         1.05070
C         22.12663        17.07159         0.33901
C         20.89793        19.15224        -0.13929
C         22.13444        18.47398         0.03801
C         23.38201         2.02932         0.02624
C         23.36325         3.45908         0.00502
C         24.63044         1.34129         0.01501
C         24.61312         4.21435        -0.32188
C         23.40159         6.29509         0.36986
C         23.36855         7.71725         0.87267
C         24.60581         5.63231         0.18243
C         24.68542         8.45264         0.69229
C         23.36652        10.57212         1.02816
C         23.43273        12.07418         0.91730
C         24.68989         9.88631         0.81244
C         24.61262        12.78346         0.82424
C         23.39479        14.96799         0.75224
C         23.36837        16.36071         0.43014
C         24.61759        14.24330         0.75543
C         24.59407        17.06100         0.27519
C         23.35981        19.15215        -0.12127
C         24.59497        18.47616         0.01798
C         25.87134         2.03783         0.04359
C         25.87781         3.46710        -0.00952
C         27.11021         1.35527         0.14142
C         27.08234         4.18661         0.00953
C         25.86067         6.32913         0.25011
C         25.86829         7.75032         0.51178
C         27.05553         5.63048         0.02274
C         27.20154         8.36637         0.89111
C         25.86525        10.61732         0.70471
C         25.86976        12.06898         0.66575
C         27.19307         9.94096         0.95936
C         27.05010        12.78354         0.46313
C         25.84109        14.93868         0.60094
C         25.83798        16.36914         0.41887
C         27.08852        14.21909         0.50084
C         27.05093        17.07591         0.33107
C         25.82633        19.16025        -0.08818
C         27.05810        18.48409         0.07759
C         28.33747         2.05453         0.14039
C         28.32737         3.48178         0.06118
C         29.59335         1.36934         0.22699
C         29.56616         4.20148         0.02556
C         28.29614         6.37449        -0.38092
C         28.37321         7.79535         0.12426
C         29.57837         5.61168        -0.13958
C         29.55698         8.46917        -0.01563
C         28.31125        10.58175         0.15781
C         28.28315        12.08188         0.05548
C         29.61117         9.90672         0.08125
C         29.56625        12.79501         0.02757
C         28.31428        14.90182         0.39564
C         28.33280        16.37865         0.69822
C         29.56480        14.21293         0.21370
C         29.57053        17.08636         0.22598
C         28.29223        19.17888        -0.01767
C         29.54240        18.49909         0.02562
C         30.80704         2.05204         0.18649
C         30.80062         3.49487         0.05110
C         32.07162         1.37560         0.33098
C         32.01892         4.21173        -0.00141
C         30.78826         6.30442        -0.16941
C         30.77090         7.76191        -0.56919
C         32.01138         5.60922        -0.03879
C         32.05564         8.50345        -0.28986
C         30.77730        10.63133        -0.16129
C         30.77176        12.08038        -0.11965
C         32.03689         9.92779        -0.28383
C         32.01654        12.79040        -0.16358
C         30.79189        14.92251         0.16976
C         30.78976        16.37840         0.16306
C         32.02586        14.21846        -0.03132
C         32.00165        17.09011         0.04297
C         30.76045        19.19069        -0.16696
C         31.99781        18.50817        -0.11106
C         33.28753         2.03866         0.22377
C         33.29367         3.46052        -0.28923
C         34.53862         1.38713         0.38226
C         34.55552         4.23038         0.00742
C         33.26421         6.37852         0.28139
C         33.25873         7.81604        -0.17071
C         34.55088         5.64143         0.01611
C         34.49674         8.52103        -0.20231
C         33.24998        10.64706        -0.30954
C         33.24653        12.08796        -0.28968
C         34.48856         9.93941        -0.33775
C         34.47491        12.79724        -0.39005
C         33.25970        14.91403        -0.09207
C         33.29707        16.36935         0.28559
C         34.47989        14.22839        -0.31766
C         34.51193        17.09402        -0.22073
C         33.23248        19.20652        -0.22609
C         34.47499        18.52415        -0.30035
C         35.75846         2.07762         0.27095
C         35.76555         3.52117         0.10971
C         37.00588         1.40464         0.40050
C         37.00096         4.23451         0.13159
C         35.75470         6.36946         0.02375
C         35.74037         7.81836        -0.09105
C         37.00544         5.66467         0.04449
C         36.94561         8.53229        -0.21639
C         35.71624        10.64584        -0.48930
C         35.71180        12.09459        -0.56078
C         36.92419         9.91659        -0.49690
C         36.90744        12.81310        -0.75225
C         35.72032        14.94292        -0.45183
C         35.71361        16.38953        -0.41656
C         36.93485        14.24251        -0.69565
C         36.93760        17.10773        -0.57981
C         35.68691        19.22888        -0.46233
C         36.92111        18.54331        -0.54391
C         38.21827         2.09533         0.38094
C         38.22882         3.53168         0.24753
C         39.47941         1.41302         0.51139
C         39.45725         4.24310         0.24606
C         38.23179         6.36533         0.04443
C         38.23780         7.86302         0.18461
C         39.46292         5.67213         0.12760
C         39.50881         8.49227        -0.32228
C         38.15700        10.58661        -0.96395
C         38.13520        12.07660        -1.11873
C         39.48877         9.87216        -0.84434
C         39.45711        12.81920        -1.13045
C         38.18313        14.96150        -0.81202
C         38.17748        16.41007        -0.73063
C         39.42863        14.28354        -0.89825
C         39.38063        17.13929        -0.76599
C         38.14514        19.24988        -0.54755
C         39.37431        18.56349        -0.60128
C         40.66011         2.10135         0.51823
C         40.69011         3.53463         0.39051
C         41.89277         4.25893         0.41587
C         40.71543         6.38087         0.10671
C         40.71165         7.81845        -0.18861
C         41.90045         5.65130         0.26746
C         41.93467         8.55076        -0.40844
C         40.73905        10.65904        -0.81280
C         40.72271        12.06899        -0.92744
C         41.94056         9.90781        -0.63124
C         41.90165        12.84889        -0.84972
C         40.66396        14.97225        -0.88668
C         40.69339        16.47111        -1.08930
C         41.86836        14.23845        -0.89707
C         41.85756        17.18010        -0.45486
C         40.60209        19.25531        -0.40241
C         41.80023        18.53088        -0.22248
O         15.47025         3.85324        -1.22914
O          9.13289        14.86833         2.19156
O         38.73269         9.92417        -2.13376
O         38.73374        12.49909        -2.38173
O         22.08590        13.57747         2.33834
O         27.98283        11.20769        -1.11870
O          7.13842        18.07396         1.56272
O         27.33004        10.34435         2.31455
O         14.01769        14.63741        -1.31919
O         17.15924        18.24470         1.35304
O          1.72666        12.52589         1.69377
H          1.62483        11.54204         1.78110
O         33.22372         6.48231         1.75983
H         33.99900         7.01575         2.03831
O         18.49346         6.23303        -1.89141
H         17.56157         6.19454        -2.20138
O         30.65629         7.76754        -2.02700
H         29.76056         7.40485        -2.24571
O         28.17490         6.50436        -1.85874
H         27.96684         5.61496        -2.21818
O         17.11532         4.23435         2.00119
H         17.92925         4.64878         2.35814
O         19.90310         8.67388        -1.81363
H         19.56249         7.82015        -2.18519
O         33.30581         3.31968        -1.76046
H         32.53777         2.75986        -2.00431
O          3.50806        16.54376         2.10559
H          2.71838        16.03095         2.38346
O          6.29775        16.29826        -1.45012
H          5.52681        15.81980        -1.82336
O         33.46166        16.38478         1.76751
H         34.27134        15.86929         1.97174
O         19.41347        12.75915         2.49932
H         20.26081        13.08785         2.88959
O         22.60698        10.18410        -1.23298
H         21.88832         9.79305        -1.78100
O         13.34838         2.07047         2.10933
H         12.50786         2.52246         2.33827
O          1.72070         9.82248         1.30132
H          2.26902         9.11747         1.73270
O         17.42504        12.81773        -1.54771
H         16.61928        13.22130        -1.93723
O         13.30822        11.83959        -1.51214
H         13.37550        12.72642        -1.93752
O          9.86147        12.45454         2.59956
H          9.39087        13.19657         3.04939
O         27.42340         7.89015         2.24444
H         27.42852         8.73240         2.79440
O         28.40706        16.46419         2.18271
H         27.63574        15.97167         2.53801
O         38.29311         8.10720         1.65725
H         39.03274         7.56648         2.01067
O         23.17816         7.59814         2.32111
H         23.07527         8.52405         2.66320
O         13.65149        11.03892         2.04865
H         13.56836        10.20818         2.56167
O         22.95689        10.31087         2.41569
H         23.60929        10.75044         3.00295
O          2.92385         5.86008        -2.90027
H          2.16253         5.51298        -3.41224
O         40.87223        16.64009        -2.55577
H         40.12770        16.17315        -2.99283
O          6.61543         3.68163        -2.41775
H          5.83440         3.40803        -2.94492
O          8.21359         3.34543         1.73232
H          8.95009         2.82227         2.11457
O         24.60138         4.33314        -1.81078
H         24.50323         3.42343        -2.16638
O          3.26330         7.50685         1.36944
H          2.58342         6.79788         1.38123
H          0.32116         1.63534        -1.23207
H          0.32220         4.11084        -1.36610
H          2.44967         0.36973        -1.02843
H          0.34233         6.10168        -1.75351
H          0.31643         8.45365        -1.13739
H          0.66873        10.39878        -1.58458
H          0.66415        12.83302        -1.22881
H          0.21180        14.47089         0.18378
H          0.21185        16.93323        -0.16719
H          1.43409        19.07565        -0.33794
H          4.86894         0.35709        -0.68413
H          3.58130        20.30367        -0.43826
H          7.32265         0.31100        -0.54526
H          6.03082        20.25537        -0.68767
H          9.80691         0.35816        -0.55817
H          8.63684        20.30278        -0.45374
H         12.20531         0.29495        -0.00954
H         11.03311        20.34018        -0.20275
H         14.73467         0.24763         0.45254
H         13.47275        20.31783        -0.35827
H         17.24377         0.24761         0.37335
H         15.77659        20.26341        -0.93084
H         19.66576         0.25089         0.14914
H         18.62381        20.11196        -1.02994
H         22.14791         0.23776         0.11834
H         20.92488        20.20681        -0.45220
H         24.63302         0.24208         0.04799
H         23.35618        20.22810        -0.34986
H         27.11483         0.25698         0.20691
H         25.82704        20.24292        -0.28316
H         29.59020         0.27381         0.33123
H         28.28173        20.26517        -0.19070
H         32.06207         0.29754         0.55628
H         30.74755        20.27958        -0.31985
H         34.55325         0.31274         0.62339
H         33.22082        20.30301        -0.31124
H         37.00987         0.31069         0.52184
H         35.67763        20.32846        -0.48353
H         39.47595         0.31757         0.61105
H         38.13712        20.34611        -0.45652
H         41.61426         1.56430         0.62392
H         42.84487         3.72256         0.53765
H         42.86932         6.16910         0.27021
H         42.89716         8.02761        -0.33279
H         42.91083        10.41822        -0.70452
H         42.88022        12.35484        -0.78227
H         42.82544        14.77698        -0.91277
H         42.80033        16.64073        -0.28927
H         40.58782        20.34434        -0.25587
H         42.69687        19.06297         0.12853
