         300
 CSIRO Nanostructure Databank - Neutral Graphene Oxide Data Set
C         30.38456        32.16743        -1.11979
C         30.50238        33.38945        -1.32626
C         31.10334        36.68098        -1.45166
C         30.32356        37.29761        -2.27532
C         30.52786        40.33655        -1.12523
C         30.42011        41.60725        -1.24939
C         32.48919        29.09948        -0.46470
C         31.46694        29.77588        -0.62931
C         32.79838        31.79566        -1.02739
C         31.15763        31.19189        -0.34257
C         32.91090        33.31009        -0.93319
C         31.72984        34.20953        -1.28434
C         32.76530        36.04600         0.22806
C         31.82039        35.63443        -0.88295
C         32.87573        37.55985         0.12531
C         31.54103        38.17716        -0.24157
C         32.86838        40.25012        -1.04294
C         31.58926        39.49772        -0.86844
C         32.80312        41.80654        -1.12089
C         31.45754        42.49233        -1.05135
C         32.64062        44.44074        -0.28492
C         31.60472        43.84534        -0.62758
C         35.33365        27.43853         0.45624
C         35.12871        28.69591        -0.35433
C         33.88082        29.54572        -0.18798
C         35.28050        31.72763        -0.53831
C         33.96240        31.03702        -0.39778
C         35.34752        33.07284        -0.37371
C         34.09451        33.85647        -0.18863
C         35.46886        36.04434         0.31313
C         34.11132        35.28846         0.25721
C         35.42677        37.49090        -0.19074
C         34.17068        38.26386        -0.11127
C         35.35723        40.34079        -0.72490
C         34.17857        39.65569        -0.63436
C         35.38713        41.86429        -0.90866
C         34.02687        42.46318        -0.52672
C         35.26539        44.64071         0.07973
C         33.96628        43.88030         0.00961
C         35.29263        45.90229         0.87672
C         37.76349        27.24032         0.17953
C         36.40304        26.87174         0.68181
C         37.73536        28.80529         0.27002
C         36.44084        29.50966        -0.02066
C         37.81633        31.58605        -0.75206
C         36.50710        30.88847        -0.61422
C         37.79354        33.09393        -0.81277
C         36.64722        33.79816        -0.10756
C         37.84039        36.00630        -0.58784
C         36.50860        35.27282        -0.55842
C         37.83960        37.36474        -0.62371
C         36.58340        38.11400        -0.55515
C         37.87906        40.23123        -0.22836
C         36.66657        39.59092        -0.90244
C         37.81656        41.66938         0.18760
C         36.58610        42.48849        -0.09075
C         37.66720        44.46628         1.10428
C         36.36907        43.73344         0.80132
C         37.59415        45.85758         1.81238
C         36.28449        46.43026         1.37224
C         40.08352        24.80199         1.99800
C         39.11433        25.34004         1.45708
C         40.23177        27.49424         1.15149
C         39.02904        26.64370         0.78003
C         40.11045        29.02213         1.12752
C         39.10094        29.47163         0.01472
C         40.29983        31.77126        -0.07083
C         39.02256        30.99305        -0.07704
C         40.36748        32.97992        -1.00914
C         39.08615        33.81716        -0.89143
C         40.37652        35.95033        -0.97359
C         39.14232        35.24915        -0.41608
C         40.29388        37.26036        -0.16617
C         39.14296        38.14126        -0.70817
C         40.15500        39.91760         0.85627
C         39.00646        39.50048        -0.04120
C         40.17766        41.42273         1.23886
C         38.86438        42.19287         1.15979
C         40.14371        44.41332         1.81984
C         38.84231        43.66511         1.50980
C         40.13181        45.92259         1.65671
C         38.78786        46.62173         1.26511
C         40.04656        48.72502         1.59665
C         39.01961        48.04887         1.67902
C         42.64235        24.81275         2.28799
C         41.28921        25.26110         2.68846
C         42.73113        27.52331         1.57289
C         41.40381        26.93214         1.93772
C         42.77303        28.86594         0.82819
C         41.49217        29.71485         0.97463
C         42.91480        31.59059        -0.19834
C         41.58494        31.08943         0.36655
C         42.91227        32.99875        -0.79217
C         41.62910        33.78048        -0.75644
C         42.90248        35.90684        -0.66300
C         41.61647        35.13103        -0.63089
C         42.84755        37.32349        -0.15768
C         41.57283        38.04813        -0.04258
C         42.74967        40.09002         0.65632
C         41.49174        39.35960         0.35860
C         42.80391        41.48429         1.21320
C         41.46651        42.18274         1.46627
C         42.55195        44.48361         0.97343
C         41.53552        43.68148         1.83131
C         42.72771        45.94719         1.55201
C         41.39602        46.68676         1.29274
C         42.71940        48.79808         1.36488
C         41.37229        48.22057         1.21883
C         43.70573        25.36633         2.01429
C         45.24416        27.40243         1.97628
C         44.04465        26.67152         1.37632
C         45.33300        28.95754         1.58188
C         43.99657        29.72938         1.34728
C         45.27023        31.77162         0.84234
C         44.21615        30.85870         0.24267
C         45.43158        33.20438        -1.35746
C         44.09362        33.92279        -1.16939
C         45.31897        35.83554        -0.12101
C         44.16217        35.15759        -0.32342
C         45.27611        37.17527         0.55853
C         44.00215        37.92931         0.25013
C         45.29092        40.16123         0.36239
C         44.00928        39.41561         0.23060
C         45.25138        41.71432         0.29146
C         44.11296        42.32136         1.22073
C         45.17124        44.54150         0.46394
C         43.90633        43.76587         0.73689
C         45.07632        46.04504         0.56049
C         43.95063        46.68403         0.96846
C         43.69412        48.08533         1.04884
C         47.66587        27.51419         1.36894
C         46.60274        26.93107         1.54793
C         48.04753        28.94857         1.15486
C         46.64863        29.67457         1.32256
C         47.66988        31.57485        -0.13732
C         46.68012        31.17933         0.97239
C         47.73240        33.03415        -0.35679
C         46.63093        33.77581        -0.66969
C         47.89920        35.97654        -0.15159
C         46.63308        35.25010        -0.47159
C         47.89948        37.37510         0.41599
C         46.54654        38.01040         0.49778
C         48.20017        40.57594         0.46344
C         46.42236        39.33030         0.81364
C         47.87785        41.83920         0.07795
C         46.59316        42.48550         0.44058
C         47.79906        44.65385         0.28643
C         46.51560        43.85499         0.45745
C         47.50127        46.09347         0.25676
C         46.36554        46.58275         0.25534
C         49.97545        28.76000        -0.57937
C         48.60107        29.24360        -0.24588
C         50.02923        31.40517        -0.89062
C         48.72896        30.78093        -0.45319
C         50.23554        32.87771        -0.62835
C         49.05825        33.68846        -0.13174
C         50.48748        35.91902        -0.23803
C         49.16173        35.17509        -0.01340
C         50.25015        37.39433        -0.73144
C         49.16003        38.15787         0.05949
C         50.18924        40.32659        -1.06783
C         49.11322        39.64813        -0.25367
C         50.21830        41.83731        -0.93076
C         48.83304        42.55575        -0.87128
C         50.13008        44.59962        -1.08662
C         48.96676        44.01830        -0.40171
C         50.95542        29.23077        -1.15515
C         52.22170        31.43677        -1.89861
C         50.99167        30.57874        -1.83442
C         52.25056        32.67092        -1.90233
C         51.29817        33.66934        -1.40531
C         52.52338        36.05596        -1.54177
C         51.38694        35.15505        -1.27348
C         52.57575        37.26820        -1.33113
C         51.64978        38.25258        -0.68542
C         52.41302        40.51265        -1.74802
C         51.45678        39.58778        -1.36100
C         52.41712        41.74950        -2.09294
C         51.48077        42.62369        -1.37411
C         51.10252        44.03024        -1.59603
O         42.91881        40.35159         2.12445
O         43.17828        35.93255        -2.16262
O         44.76652        39.72169        -0.97230
O         50.74634        31.89870         0.30065
O         33.01047        41.00065        -2.29141
O         47.45713        39.97851         1.48376
O         40.15071        26.81720        -0.14157
O         37.74451        42.60638        -0.96030
O         38.42061        42.57276         2.49433
O         42.84053        31.79900        -1.62558
O         45.54599        32.24731        -2.10469
O         39.37290        31.84952         1.05316
O         42.12778        27.72316         2.89449
O         37.24648        30.90463        -1.89905
O         44.31550        44.01357        -0.63130
O         33.83834        42.73655         0.88750
O         48.92093        37.69035         1.40963
O         40.11034        45.31770         2.96779
O         36.95203        29.39560         1.33552
O         44.84585        41.96220        -1.02855
O         41.27025        47.39426         0.01494
O         36.89870        33.71642         1.31063
O         47.25814        31.82058         2.12820
O         32.75252        33.90708        -2.27507
O         36.84729        39.55332        -2.40622
O         39.93203        36.75034         1.18144
O         48.95747        39.84906        -1.72732
O         33.97197        34.21302         1.23965
O         51.23317        42.26385         0.01195
O         33.81444        30.45679         0.94576
O         49.20345        34.33176         1.18140
O         46.11491        29.56368         2.67480
O         48.93393        44.17442         1.03270
O         50.69509        34.56198        -2.38101
O         33.52041        38.21539         1.23950
O         43.66552        34.53981        -2.46788
O         41.58575        30.89427         1.80271
O         40.75541        41.53590         2.56998
O         38.21831        33.69118        -2.06869
O         47.35831        35.99764        -1.51453
O         35.67429        44.90579        -1.24579
H         36.47465        45.47347        -1.22581
O         50.40291        30.46880        -3.10149
H         51.03285        30.04959        -3.72288
O         40.41660        32.42005        -2.32844
H         40.35301        33.14783        -2.98212
O         32.04198        35.79393         1.46223
H         32.45942        35.00535         1.89226
O         44.81250        30.18855        -0.87089
H         44.42492        30.56357        -1.69924
O         37.64189        45.71068         3.21007
H         36.84188        45.22290         3.49730
O         47.65351        28.74625        -1.17729
H         48.00375        28.85231        -2.08596
O         38.66569        46.59147        -0.14887
H         39.45986        47.04480        -0.52738
O         41.89788        44.59088        -0.30070
H         42.59247        44.69879        -0.99452
O         42.00613        43.65743         3.18151
H         41.40929        43.06447         3.69134
O         35.95921        35.27067        -1.89180
H         36.63338        34.87175        -2.49106
O         32.77184        31.39809        -2.36787
H         32.46997        32.16056        -2.91634
O         44.27456        26.48746        -0.01815
H         43.72891        25.74069        -0.34215
O         41.12722        25.42067         4.03575
H         41.89832        25.89960         4.40518
O         43.67973        30.29371         2.60347
H         44.50971        30.37690         3.12771
O         42.86071        28.63773        -0.57581
H         43.57721        27.98032        -0.75679
O         37.79957        40.59419        -2.79937
H         37.61586        40.66305        -3.76913
O         39.56491        29.38275         2.39019
H         39.85301        30.30439         2.59320
O         35.85891        43.35068         2.08998
H         36.60143        42.91846         2.58349
O         39.44456        35.33413         1.02086
H         37.74973        34.16908         1.51606
O         45.09472        27.32932         3.37082
H         45.77984        27.89831         3.78517
O         44.57420        42.38691         2.56778
H         44.21848        41.61586         3.06279
O         45.14671        36.86474         1.99393
H         46.03595        36.66771         2.35898
O         42.97197        45.96344         2.95310
H         42.20799        45.55672         3.42820
O         39.59221        29.04893        -1.26586
H         39.05365        29.47873        -1.96723
O         35.87752        36.12192         1.67498
H         35.73468        35.23624         2.08374
O         37.75763        26.92780        -1.22057
H         38.69030        26.76782        -1.49725
O         45.01528        32.86135         1.33684
H         46.75691        32.65450         2.28497
O         48.28708        42.58075        -2.19245
H         48.04700        41.66334        -2.45188
O         39.49814        38.42369        -2.07774
H         38.87837        39.09835        -2.44152
O         40.31268        36.06683        -2.38477
H         41.19832        36.33009        -2.72278
O         49.82002        37.27845        -2.07761
H         49.45753        38.14316        -2.38505
O         30.58136        38.01143         0.68293
H         30.76018        37.19869         1.21665
O         31.04486        31.42121         1.00615
H         31.56800        30.75313         1.50000
O         35.58317        42.19377        -2.28091
H         36.55155        42.12647        -2.46177
O         48.93719        29.44998         2.11033
H         48.49193        29.48287         2.98199
O         35.18578        28.33046        -1.71891
H         35.93334        27.70029        -1.84860
O         39.87094        39.21209         2.08574
H         40.45088        39.59947         2.78200
O         51.19691        35.95649         1.00336
H         50.80231        35.28063         1.60524
O         51.99153        38.51180         0.65535
H         52.02620        37.65147         1.13828
