         420
 CSIRO Nanostructure Databank - Neutral Graphene Oxide Data Set
C         27.88631        27.53104         0.14111
C         27.92342        28.86652        -0.33719
C         26.73609        29.46697        -0.83659
C         28.08515        31.26351        -1.71907
C         26.83179        30.62081        -1.58108
C         28.15885        33.55552        -1.95842
C         26.95911        34.31147        -2.03380
C         27.98054        36.17037        -0.84858
C         26.85511        35.55464        -1.40779
C         27.94661        37.53192        -0.36715
C         26.73513        38.27356        -0.31033
C         27.92297        40.29470         0.38148
C         26.72757        39.60250         0.06505
C         27.91309        41.70928         0.71094
C         26.70140        42.43772         0.85325
C         27.91858        44.52484         1.13618
C         26.70094        43.79929         1.08488
C         27.94345        45.94188         1.29419
C         30.30980        27.44437         0.10192
C         29.06061        26.81701         0.28921
C         30.37598        28.83310        -0.13823
C         29.17624        29.55091        -0.43903
C         30.52236        31.61527        -1.07624
C         29.24093        30.84405        -1.05514
C         30.53941        33.20143        -1.12474
C         29.27963        33.98874        -1.26231
C         30.41821        35.97702        -0.18691
C         29.31588        35.49381        -1.08374
C         30.38964        37.41809         0.17189
C         29.14416        38.20533        -0.00356
C         30.40680        40.23990         0.69304
C         29.14975        39.57200         0.34677
C         30.39681        41.68582         0.84795
C         29.14453        42.40039         0.84624
C         30.37540        44.55289         0.98050
C         29.14913        43.82034         1.00664
C         30.37841        45.96643         1.09770
C         29.12985        46.63680         1.27701
C         32.73034        24.50977         0.18747
C         31.58444        25.19862         0.29427
C         32.79379        27.35298         0.45559
C         31.57676        26.64649        -0.13740
C         32.82870        28.81613         0.09577
C         31.65521        29.52278        -0.17313
C         32.87796        31.65679        -0.25426
C         31.70816        30.94833        -0.48019
C         32.92274        33.10366        -0.27364
C         31.73528        33.87297        -0.53482
C         32.85770        35.94493         0.26308
C         31.71572        35.25390        -0.23107
C         32.90070        37.35275         0.45169
C         31.68818        38.17453         0.08090
C         32.87122        40.17759         1.05353
C         31.60123        39.53456         0.72275
C         32.88078        41.72798         1.02818
C         31.59441        42.40843         0.84899
C         32.81052        44.54333         0.59275
C         31.60746        43.84531         0.79332
C         32.83211        45.96074         0.69905
C         31.63153        46.67440         1.01230
C         32.92750        48.73609         1.11150
C         31.71692        48.07421         1.21065
C         35.34599        22.97680        -0.25612
C         35.30645        24.43058        -0.39854
C         33.97450        25.20471        -0.24236
C         35.27250        27.31115        -0.00711
C         34.06429        26.63848         0.04457
C         35.29610        28.76886         0.14014
C         34.09249        29.47712         0.15220
C         35.36009        31.64570         0.25847
C         34.04042        30.95378         0.41963
C         35.35295        33.05234         0.33269
C         34.09733        33.74627         0.19184
C         35.39592        35.91086         0.75983
C         34.05120        35.15493         0.56575
C         35.38234        37.36601         0.60653
C         34.12085        38.04852         0.62016
C         35.30820        40.22205         0.57686
C         34.13645        39.49458         0.72663
C         35.30474        41.67112         0.50618
C         34.11987        42.38094         0.62118
C         35.30534        44.54565         0.12166
C         34.00937        43.78184         0.07534
C         35.27277        45.92548         0.18967
C         34.06878        46.67239         0.53363
C         35.42316        48.82827         0.79319
C         34.11427        48.05988         0.75085
C         35.34901        50.24265         0.26178
C         37.78401        23.02429        -0.19676
C         36.54817        22.32423        -0.17730
C         37.80758        24.44136        -0.15463
C         36.55344        25.18426        -0.17100
C         37.75857        27.31554         0.20444
C         36.51468        26.56980        -0.06084
C         37.77829        28.78174         0.08333
C         36.55750        29.48005         0.15170
C         37.82263        31.59732         0.35657
C         36.57134        30.91310         0.24259
C         37.82796        33.03255         0.47743
C         36.59821        33.75796         0.44324
C         37.84092        35.89462         0.34836
C         36.63903        35.18161         0.49332
C         37.83344        37.34283         0.32496
C         36.58466        38.04793         0.41505
C         37.84947        40.24161         0.78776
C         36.58534        39.52877         0.19209
C         37.79429        41.69366         0.32752
C         36.55734        42.38130         0.23683
C         37.78645        44.47178        -0.10167
C         36.54960        43.79407         0.03261
C         37.82043        45.90768        -0.37878
C         36.46298        46.70659        -0.17512
C         37.76395        48.79719        -0.14252
C         36.56734        48.11019         0.12532
C         37.76287        50.23373        -0.18227
C         36.46696        50.89304        -0.12958
C         40.32616        20.36509         0.63848
C         39.13479        20.96449         0.42527
C         40.31314        23.02792        -0.32381
C         39.04676        22.22370        -0.40769
C         40.29352        24.44975        -0.37737
C         39.04337        25.13855        -0.20362
C         40.27530        27.36763        -0.26478
C         39.08055        26.57868         0.07067
C         40.28406        28.75134        -0.13128
C         39.02933        29.46241         0.08107
C         40.31231        31.50657         0.61072
C         39.03420        30.86306         0.28034
C         40.29997        33.05419         0.80555
C         39.04481        33.75405         0.56008
C         40.32540        35.84810         0.35789
C         39.08554        35.16463         0.36994
C         40.31515        37.29006        -0.09064
C         39.04942        38.05450         0.23620
C         40.28712        40.17768         0.21968
C         39.08640        39.48061         0.29609
C         40.28113        41.65368         0.60112
C         39.00808        42.38333         0.24912
C         40.26598        44.50995        -0.05671
C         39.02362        43.78593         0.02953
C         40.28551        45.93171        -0.10383
C         39.04807        46.66164        -0.20217
C         40.23138        48.81705        -0.25596
C         39.01583        48.07603        -0.25228
C         40.22084        50.21597        -0.36598
C         38.97154        50.93866        -0.36021
C         40.19431        53.04113        -0.61591
C         39.01252        52.37151        -0.47069
C         42.80073        20.32589         0.38692
C         41.57272        20.98784         0.23636
C         42.78499        23.02871        -0.44549
C         41.55934        22.34587        -0.21170
C         42.75915        24.45112        -0.95726
C         41.49239        25.17204        -0.55757
C         42.79165        27.39933        -0.76469
C         41.45771        26.62599        -0.70891
C         42.77582        28.82048        -0.38961
C         41.54721        29.48984        -0.18307
C         42.78963        31.57449         0.27400
C         41.57716        30.86178         0.21068
C         42.83809        32.96841         0.90045
C         41.56063        33.77372         0.71683
C         42.75630        35.99397         1.02031
C         41.55895        35.15905         0.56283
C         42.80663        37.37150         0.36434
C         41.58784        38.05284         0.15698
C         42.76341        40.19624         0.04363
C         41.55285        39.47827         0.09254
C         42.81560        41.68492         0.29583
C         41.50750        42.40163         0.15547
C         42.74590        44.51736        -0.26794
C         41.50767        43.77956        -0.05475
C         42.74048        45.94299        -0.28986
C         41.51505        46.63645        -0.14224
C         42.74907        48.81502        -0.45291
C         41.52557        48.12096         0.08059
C         42.71468        50.22616        -0.61263
C         41.46522        50.93445        -0.52130
C         42.66172        53.03840        -0.89385
C         41.44546        52.33840        -0.66865
C         43.99296        20.98971         0.12623
C         45.26398        23.07304        -0.42875
C         44.00214        22.34727        -0.28004
C         45.24759        24.50515        -0.48000
C         44.02503        25.22445        -0.61904
C         45.26525        27.35174        -0.46713
C         44.03682        26.62346        -0.59352
C         45.25675        28.79512        -0.35625
C         44.02364        29.50660        -0.23678
C         45.27709        31.64345         0.10538
C         44.01876        30.91442         0.04128
C         45.30140        33.04463         0.26375
C         44.00202        33.81878         0.32601
C         45.37559        35.93695         0.68075
C         44.11873        35.15625         1.09083
C         45.32285        37.43077         0.38260
C         44.01112        38.09377         0.25378
C         45.21699        40.17421        -0.32782
C         43.99285        39.48773        -0.03502
C         45.17427        41.58960        -0.72739
C         43.90459        42.35592        -0.50961
C         45.17392        44.50340        -0.73440
C         43.96474        43.82923        -0.47857
C         45.18732        45.94920        -0.72516
C         43.97056        46.65929        -0.50288
C         45.17406        48.80388        -0.85660
C         43.95682        48.09524        -0.59955
C         45.16522        50.22368        -0.98519
C         43.91889        50.94639        -0.88017
C         43.85762        52.36055        -1.00522
C         47.70057        23.11066        -0.37717
C         46.48886        22.40690        -0.43330
C         47.72273        24.50220        -0.31927
C         46.48428        25.22304        -0.42862
C         47.76964        27.36205        -0.73511
C         46.47863        26.63752        -0.47123
C         47.73786        28.81432        -0.34138
C         46.50296        29.50339        -0.25337
C         47.74438        31.62940        -0.08014
C         46.50632        30.92431        -0.05751
C         47.74969        33.05507        -0.02906
C         46.52479        33.76684         0.14947
C         47.73958        35.89492        -0.14125
C         46.55788        35.19548         0.20893
C         47.72205        37.34787        -0.32410
C         46.50606        38.07998        -0.19581
C         47.62469        40.21299        -0.80125
C         46.44044        39.48234        -0.44697
C         47.64522        41.62289        -0.87694
C         46.42366        42.35515        -0.83954
C         47.65736        44.47046        -0.97821
C         46.40940        43.76266        -0.89187
C         47.65190        45.93366        -1.34077
C         46.39215        46.66143        -0.94325
C         47.64106        48.79438        -1.10924
C         46.40525        48.07910        -0.96903
C         47.59554        50.19140        -1.26109
C         46.39399        50.88638        -1.22263
C         50.16095        24.56540         0.27257
C         48.96901        25.23749        -0.10473
C         50.20905        27.35039        -0.08105
C         48.99213        26.63333        -0.23445
C         50.21921        28.78248        -0.22010
C         48.97075        29.50291        -0.26007
C         50.22431        31.63512        -0.23893
C         48.98220        30.92566        -0.19173
C         50.22215        33.05457        -0.25656
C         48.97418        33.76687        -0.18669
C         50.19181        35.84874        -0.75269
C         48.94251        35.17306        -0.34846
C         50.16469        37.35327        -0.96242
C         48.87900        38.02628        -0.73524
C         50.20493        40.23718        -0.97838
C         48.83852        39.44886        -1.02709
C         50.10383        41.66386        -0.73204
C         48.89880        42.34478        -0.85171
C         50.11211        44.52476        -0.68583
C         48.86890        43.79357        -0.87160
C         50.11821        45.96476        -0.70177
C         48.91331        46.67305        -0.95145
C         50.13649        48.77031        -0.80322
C         48.90706        48.07872        -0.98189
C         51.34721        25.25207         0.43197
C         52.66524        27.37307         0.25026
C         51.41338        26.65243         0.22777
C         52.66755        28.74078        -0.08962
C         51.45229        29.47672        -0.23825
C         52.68215        31.64863        -0.31241
C         51.46704        30.92314        -0.30366
C         52.69759        33.06535        -0.24997
C         51.45935        33.77146        -0.28477
C         52.68476        35.89836        -0.44636
C         51.47374        35.18446        -0.44524
C         52.67952        37.35608        -0.65001
C         51.42173        38.10955        -0.74055
C         52.53608        40.20608         0.00746
C         51.42761        39.48721        -0.61748
C         52.37615        41.58903         0.29215
C         51.41307        42.37024        -0.57788
C         52.43265        44.55657         0.07110
C         51.27422        43.84318        -0.31129
C         52.53467        45.95282        -0.10980
C         51.34236        46.67569        -0.49188
C         51.31714        48.09043        -0.58133
C         55.10994        27.39915         0.54965
C         53.90911        26.72528         0.55551
C         55.18922        28.76178         0.14739
C         53.95625        29.40893        -0.30417
C         55.21504        31.65780        -0.11457
C         53.96975        30.95261        -0.44161
C         55.17356        33.08995        -0.00206
C         53.93728        33.79244        -0.16765
C         55.11482        35.95732         0.14792
C         53.91857        35.22155        -0.18590
C         55.06796        37.35666         0.39390
C         53.93381        38.14517        -0.09848
C         54.66992        40.06132         1.34191
C         53.68487        39.48952         0.42361
C         54.55042        41.60889         1.65053
C         53.35278        42.30970         1.08103
C         54.77788        44.47752         0.98711
C         53.46911        43.85748         0.84158
C         54.90099        45.82762         0.56809
C         53.81066        46.56033         0.12260
C         56.37616        29.50461         0.18171
C         56.38620        30.90128         0.05162
C         56.35183        33.84731         0.25246
C         56.31650        35.21676         0.36097
C         56.10125        38.06249         1.08804
C         55.94871        39.35665         1.49928
C         55.72324        42.41425         1.94978
C         55.84009        43.73709         1.57776
O         36.99102        46.34191        -1.49009
O         38.49429        26.87705         1.40092
O         54.16647        40.59320         2.61579
O         49.59290        39.81203        -2.22736
O         28.12397        32.32509        -2.62614
O         50.16779        36.43085        -2.10912
O         53.69918        37.91126        -1.52254
O         52.85800        43.28000         2.05265
O         30.83818        32.35576        -2.28353
O         42.04327        27.09475        -1.99627
O         32.92875        40.95839         2.27482
O         40.28241        32.10172         1.92950
O         30.16051        36.39025         1.19794
O         34.49547        24.84844        -1.55812
O         54.05927        30.07490        -1.60506
O         37.97589        40.25596         2.16773
O         34.63307        35.41157         1.88929
O         42.40049        36.33724         2.34057
O         44.17043        41.80034        -1.82545
O         45.68052        36.91272         1.72114
O         29.76007        35.99769        -2.40764
H         29.11782        35.67819        -3.07748
O         47.64020        45.94970        -2.82194
H         48.43155        45.45501        -3.12508
O         32.67348        27.26735         1.90498
H         33.31349        27.89597         2.30045
O         33.74352        43.58120        -1.37216
H         33.84137        44.45471        -1.80912
O         43.01883        32.66397         2.29507
H         43.40935        33.46843         2.73074
O         35.74111        48.94280         2.22610
H         36.57948        49.44688         2.29816
O         33.73707        31.05711         1.87370
H         34.58789        31.02436         2.36129
O         52.04619        42.34347        -1.92212
H         51.91266        41.44655        -2.30055
O         42.71843        24.37813        -2.42754
H         42.58093        25.30508        -2.74073
O         44.33558        34.86990         2.48180
H         43.73882        35.53540         2.95077
O         41.63418        48.26984         1.56169
H         41.67902        49.23224         1.75003
O         43.66354        34.18317        -1.04232
H         43.72377        33.37941        -1.60051
O         43.18607        41.84087         1.70506
H         42.37486        41.64262         2.23419
O         40.24131        37.17696        -1.57488
H         40.19360        38.08923        -1.93527
O         36.78859        39.73837        -1.24797
H         36.02479        39.34748        -1.72215
O         47.89142        27.36622        -2.21250
H         48.72953        27.82721        -2.43196
O         31.76655        26.67291        -1.57902
H         31.05303        26.14706        -1.99539
O         38.95593        21.75328        -1.81227
H         39.82011        21.34462        -2.03505
O         40.33107        41.59360         2.07427
H         39.47877        41.11405         2.35020
O         31.82391        38.44052        -1.36351
H         32.60269        39.02173        -1.49334
H         26.91392        27.03426         0.26823
H         25.77503        28.94658        -0.72049
H         25.95545        31.04986        -2.08404
H         26.09174        33.87191        -2.54250
H         25.87615        36.05231        -1.39092
H         25.78036        37.79375        -0.56326
H         25.76506        40.13020         0.09204
H         25.73745        41.91551         0.78985
H         25.74928        44.33812         1.19902
H         26.99176        46.47974         1.41411
H         29.01014        25.74761         0.53581
H         29.10683        47.72962         1.38512
H         32.76725        23.43816         0.43335
H         30.66679        24.69676         0.63419
H         32.96207        49.81167         1.33162
H         30.82121        48.64825         1.48264
H         34.41350        22.40484        -0.35578
H         34.39240        50.78369         0.29496
H         36.55712        21.22551        -0.17444
H         36.39315        51.94752        -0.43235
H         40.37821        19.39937         1.16400
H         38.20787        20.47074         0.75063
H         40.20223        54.13662        -0.71150
H         38.07464        52.94245        -0.44449
H         42.81618        19.28328         0.73548
H         42.63647        54.13254        -0.99900
H         44.93932        20.45353         0.27549
H         44.77350        52.93555        -1.19504
H         48.63582        22.53589        -0.35160
H         46.52526        21.30966        -0.45332
H         48.52279        50.75951        -1.41528
H         46.41782        51.97604        -1.35408
H         50.15395        23.47872         0.43005
H         50.15603        49.86819        -0.82384
H         52.25153        24.68928         0.69822
H         52.24347        48.66300        -0.43624
H         56.03245        26.87811         0.84455
H         53.90525        25.66634         0.84563
H         55.87497        46.32622         0.68143
H         53.94688        47.62969        -0.08979
H         57.31754        28.98988         0.42349
H         57.34786        31.41443         0.18868
H         57.31277        33.33292         0.38435
H         57.25032        35.75269         0.57706
H         57.03636        37.54082         1.33484
H         56.74201        39.83868         2.08623
H         56.55144        41.93683         2.49185
H         56.78492        44.26299         1.78106
