         320
 CSIRO Nanostructure Databank - Neutral Graphene Oxide Data Set
C         30.57073        31.54566         0.64220
C         30.63087        32.78231         0.50220
C         30.36803        36.05064        -0.22733
C         30.31027        37.27948        -0.19088
C         30.37954        40.39846         0.43117
C         30.16105        41.62934         0.63542
C         32.75707        28.91030        -0.66975
C         31.83478        29.32498         0.07101
C         32.75368        31.72709        -1.14883
C         31.08528        30.49649        -0.14693
C         32.72406        33.03005        -0.69455
C         31.38550        33.73262        -0.42196
C         32.76216        35.96962        -0.11689
C         31.47173        35.14011         0.17018
C         32.73891        37.32514        -0.01276
C         31.43954        38.05759         0.45589
C         32.69700        40.33500         0.22403
C         31.44807        39.53350         0.25281
C         32.65574        41.76793         0.75667
C         31.29284        42.40444         1.29955
C         32.59470        44.42268         0.85006
C         31.50445        43.84581         0.89186
C         35.28262        27.37013        -0.51013
C         35.21893        28.77762        -0.82678
C         33.97045        29.40819        -1.37246
C         35.20225        31.60419        -1.23190
C         33.98831        30.95223        -1.24946
C         35.22759        33.08903        -1.25107
C         33.96382        33.83454        -0.82000
C         35.35542        35.92249        -0.23615
C         34.04232        35.14461        -0.02149
C         35.25829        37.41149        -0.36285
C         34.03227        38.08867         0.24698
C         35.23955        40.39235         0.53705
C         34.03757        39.60779        -0.06611
C         35.17701        41.89675         0.28439
C         33.99313        42.41092         1.21050
C         35.22357        44.73698         1.26723
C         33.94113        43.98701         1.22449
C         35.55584        46.12891         0.97497
C         37.60472        27.22365         0.06366
C         36.26419        26.68784        -0.19463
C         37.73789        28.60069        -0.70177
C         36.42845        29.41547        -0.75591
C         37.87462        31.52308        -1.11080
C         36.49037        30.79379        -1.38504
C         37.74474        33.03657        -0.70663
C         36.58249        33.79394        -1.37405
C         37.83906        36.01351        -1.19678
C         36.57186        35.22013        -0.79438
C         37.72809        37.36887        -0.50152
C         36.42544        38.04364        -0.75857
C         37.72268        40.37723         0.62299
C         36.46705        39.85146         1.04826
C         37.82105        41.83853         0.50492
C         36.53667        42.60876         0.51921
C         37.91604        44.71706         1.23088
C         36.57932        43.89425         1.34797
C         37.96140        46.24214         1.33995
C         36.60445        46.76352         1.08754
C         40.16586        24.46474         0.61745
C         39.08862        25.06760         0.53802
C         40.19286        27.22256         0.09394
C         38.83917        26.50272         0.44341
C         40.09054        28.71661         0.50341
C         38.96209        29.36676        -0.26367
C         40.22344        31.57033        -0.18138
C         38.85589        30.85287        -0.08233
C         40.26473        33.01112        -0.31467
C         39.10721        33.76416        -0.97362
C         40.18939        35.93564        -0.39559
C         39.06073        35.25809        -0.69890
C         40.21171        37.45999        -0.52317
C         38.92770        38.09289         0.03980
C         40.18369        40.31100         0.01856
C         39.00412        39.53776         0.66408
C         40.32671        41.72295         0.54116
C         39.12879        42.48129         1.04948
C         40.47638        44.73494         1.13184
C         39.17442        44.00758         0.67563
C         40.45479        46.24830         0.67906
C         39.24434        47.06247         1.32346
C         40.34863        48.83854         0.01037
C         39.34840        48.33237         0.52501
C         42.73713        24.43996         0.95100
C         41.53500        24.98564         0.22518
C         42.51919        27.34056         1.19997
C         41.42691        26.50560         0.54578
C         42.56645        28.74096         0.56952
C         41.41884        29.42930         0.29662
C         42.69619        31.56634         0.01566
C         41.41331        30.86581         0.01373
C         42.70697        33.02668         0.06175
C         41.43489        33.71312        -0.03524
C         42.67505        35.95224         0.23649
C         41.39606        35.19967         0.06919
C         42.73410        37.32390        -0.43144
C         41.49084        38.09585        -0.07671
C         42.70110        40.24793        -0.46835
C         41.54497        39.55660         0.26590
C         42.63836        41.77648        -0.57041
C         41.60730        42.39950         0.38355
C         42.72561        44.48178        -0.37308
C         41.67874        43.93089         0.53680
C         42.98911        46.46271         1.23418
C         41.74962        47.04721         0.89961
C         42.87610        48.39239        -0.76038
C         41.77367        48.49572         0.32385
C         43.67597        25.24784         1.08559
C         45.07125        27.31206         1.07500
C         43.88633        26.64882         1.16986
C         45.08672        28.83105         1.01588
C         43.89453        29.33434         0.15759
C         45.18525        31.51001        -0.03029
C         43.88242        30.84696         0.09408
C         45.20512        33.05070        -0.02026
C         43.91830        33.72724         0.16657
C         45.24893        35.95548         0.28879
C         43.96025        35.19540         0.39011
C         45.20758        37.42396         0.01057
C         44.03296        38.06508        -0.20385
C         45.29171        40.22125        -0.69435
C         44.00092        39.50865        -0.54756
C         45.23188        41.68743        -0.94922
C         44.01726        42.43625        -0.48618
C         45.26706        44.62348        -0.58065
C         44.04748        43.79086        -0.33286
C         45.45450        46.07538         0.72515
C         44.22238        46.83677         0.57008
C         43.94770        47.82540        -0.41855
C         47.59442        28.81619         2.63263
C         47.58526        28.53781         3.86490
C         47.64943        29.01205         1.27921
C         46.43676        29.34032         0.43564
C         47.72765        31.50801        -0.16659
C         46.44214        30.84592         0.29630
C         47.76847        33.02591         0.00707
C         46.50012        33.75134         0.42306
C         47.79925        35.92239         0.18581
C         46.49963        35.20017        -0.14139
C         47.77758        37.41838         0.30888
C         46.45575        38.24238         0.29859
C         47.76027        40.21905        -0.87883
C         46.47333        39.56871        -0.49811
C         47.86115        41.72766        -1.26494
C         46.50408        42.44957        -1.13888
C         47.81310        44.63559        -1.16449
C         46.59286        43.83924        -0.51667
C         47.68179        45.98177        -0.47676
C         46.71782        46.47856         0.10485
C         50.20359        29.05445         1.48794
C         48.96910        29.32589         0.64022
C         50.24199        31.50935        -0.08276
C         48.95573        30.94068         0.57832
C         50.23437        33.01805         0.11525
C         48.99858        33.72636         0.06182
C         50.30718        35.95575         0.33020
C         48.97551        35.21842         0.17803
C         50.30579        37.36943        -0.21586
C         49.07273        38.12756         0.01476
C         50.30320        40.27539        -0.42489
C         49.03256        39.49186        -0.61161
C         50.25102        41.74941        -0.20290
C         49.01688        42.50572        -0.59333
C         50.34254        44.46289        -0.54493
C         49.05093        43.86634        -0.79338
C         51.25441        29.70306         1.21326
C         52.64473        31.65783         0.19477
C         51.56058        30.88694         0.54447
C         52.70268        32.86013        -0.25130
C         51.54098        33.74877         0.32036
C         52.64820        35.98118        -0.24426
C         51.44443        35.10004        -0.35727
C         52.69004        37.20729        -0.37094
C         51.61642        38.20274        -0.01702
C         52.68311        40.44714        -0.72415
C         51.56363        39.46658        -0.87419
C         52.72261        41.67316        -0.60310
C         51.83427        42.64478         0.07743
C         51.47128        43.95876        -0.46360
O         31.50733        31.08606        -1.40416
O         45.65275        42.21326        -2.28326
O         37.29689        42.52108        -0.72857
O         48.59818        37.94129         1.43151
O         38.02107        27.16141         1.45148
O         41.81385        35.77585         1.38504
O         42.53390        45.30713        -1.28243
O         34.36068        33.79435        -2.22665
O         42.25071        43.04567         1.54750
O         44.71231        35.61532         1.60720
O         50.23746        40.84193         0.93469
O         38.03716        45.39812         2.52512
O         34.06654        34.70907         1.37688
O         43.09911        39.69080        -1.75160
O         38.15842        37.21061         0.89531
O         36.46607        30.37668        -2.84984
O         45.31106        32.33751        -1.29090
O         34.43869        44.53407         2.46776
O         32.54551        41.52299        -0.64552
O         48.44548        39.42173        -1.93254
O         44.08628        28.86060        -1.22240
H         43.35716        29.22457        -1.76917
O         39.90013        40.34493        -1.40037
H         40.54070        40.96850        -1.82498
O         51.10856        34.89541        -1.71539
H         51.22909        35.73838        -2.20087
O         31.34799        37.83345         1.85689
H         31.21519        36.86005         2.00281
O         36.84546        33.86866        -2.78910
H         36.04799        34.26674        -3.20939
O         39.31488        39.32513         2.06855
H         38.67266        38.64402         2.38340
O         45.14250        45.29061        -1.79136
H         44.18688        45.53521        -1.92664
O         41.90024        39.71192         1.66263
H         41.14516        39.36813         2.20064
O         39.56753        47.41331         2.65512
H         39.07308        46.83346         3.27417
O         40.18370        46.32174        -0.71552
H         40.95380        45.97762        -1.23380
O         40.12608        37.73683        -1.96326
H         40.92403        37.32357        -2.37493
O         39.86345        28.84648         1.95559
H         39.06978        28.29291         2.18377
O         46.40829        35.13056        -1.58361
H         47.15914        34.59519        -1.91900
O         46.20985        26.58635         1.03900
H         47.01439        27.14645         1.04425
O         42.16680        27.50953         2.59714
H         41.34003        28.05291         2.64358
O         41.66436        24.83028        -1.18397
H         41.79017        23.87825        -1.38213
O         43.08607        45.52545         2.21569
H         42.19379        45.31153         2.61403
O         48.85825        31.42723         1.90838
H         49.41160        30.88447         2.51123
O         34.22103        41.95488         2.53463
H         34.85721        42.57490         2.97274
O         34.12427        39.65832        -1.49887
H         34.02624        40.60817        -1.75696
O         37.41231        33.15151         0.67550
H         38.09637        32.71609         1.23676
O         35.99949        31.47284        -3.66843
H         36.66208        32.20467        -3.50101
O         50.31314        31.21380        -1.46370
H         50.03851        30.27394        -1.59130
O         49.20057        28.80476        -0.64433
H         48.32889        28.63727        -1.08883
O         47.82943        31.21906        -1.58848
H         47.00725        31.58106        -1.99706
O         37.92579        28.23517        -2.10606
H         38.82609        27.82071        -2.17422
O         39.09324        42.40134         2.50391
H         39.21052        41.45213         2.74323
O         42.71591        37.01491        -1.87480
H         42.93482        37.86365        -2.33288
O         31.40916        35.03564         1.60838
H         32.28812        34.71251         1.92537
O         42.12688        42.06568        -1.89906
H         42.65967        41.53131        -2.53355
O         36.51268        39.18746        -1.46313
H         37.44930        39.39091        -1.67336
O         34.10803        37.94278         1.70890
H         34.02291        36.98579         1.92194
O         46.63421        28.68868        -0.85378
H         45.81521        28.82715        -1.39686
O         46.23811        38.70667         1.65620
H         47.11958        38.75039         2.10064
O         36.37282        35.34359         0.65214
H         35.02833        34.57949         1.59763
O         52.01813        42.67364         1.43489
H         51.86530        41.76946         1.79184
O         37.91116        36.20810        -2.61051
H         38.39095        35.43106        -2.98712
O         36.58461        43.36239         2.68725
H         36.85478        44.09246         3.29220
O         44.84907        29.38666         2.31194
H         45.53376        29.06570         2.94524
O         50.60633        36.05861         1.75351
H         49.85165        36.56235         2.14611
O         46.91458        43.50828         0.83914
H         46.96134        44.32726         1.38813
O         46.54957        33.77196         1.85938
H         45.83045        34.36933         2.18722
O         40.58512        44.71636         2.55787
H         40.32014        43.81112         2.86627
O         51.38546        39.06483        -2.21915
H         51.36635        39.85428        -2.79829
O         38.60391        31.40675        -2.35190
H         38.29007        30.58359        -2.80380
O         42.26697        49.36918         1.29890
H         42.16907        50.29344         0.99287
O         30.65823        33.78779        -1.63233
H         30.60523        32.87943        -2.00630
O         51.72536        38.57049         1.34116
H         51.64695        37.74552         1.87576
O         39.43005        33.80747        -2.39453
H         39.36590        32.89076        -2.75881
O         34.82262        42.23667        -1.06701
H         35.65205        42.19533        -1.59787
O         33.89102        29.07082        -2.76169
H         34.73093        29.36583        -3.18720
O         36.53938        38.78395         1.85324
H         35.63807        38.41371         2.04811
O         48.21478        41.78008        -2.65655
H         47.39417        41.64698        -3.18166
O         45.68079        45.52735         1.97709
H         44.82448        45.39788         2.45093
O         51.87321        33.86657         1.68760
H         52.57352        34.54799         1.77749
O         39.24692        44.12167        -0.74393
H         38.47978        43.66622        -1.16483
O         47.68810        44.72966        -2.55616
H         46.84530        45.19126        -2.76459
O         38.39985        30.99323         1.30058
H         38.98573        30.40153         1.84504
O         40.28807        27.22255        -1.37190
H         40.68244        26.35276        -1.64121
O         31.21413        42.30226         2.68108
H         30.41059        42.75380         3.00930
