         316
 CSIRO Nanostructure Databank - Neutral Graphene Oxide Data Set
C         30.44044        31.70319         1.78127
C         30.42712        32.93380         1.92379
C         30.27370        36.21062         1.03191
C         30.46560        37.43123         1.06569
C         30.53453        40.51024         0.07613
C         30.57418        41.59971        -0.55972
C         32.77441        28.75862         1.18873
C         31.75045        29.43091         1.40607
C         32.77304        31.55674         1.38572
C         31.59133        30.85261         1.57931
C         32.85917        33.05505         1.75877
C         31.51285        33.89136         1.70556
C         32.54857        35.93824         0.33295
C         31.42596        35.28550         1.19020
C         32.83817        37.33544         0.87953
C         31.64891        38.34717         1.02626
C         32.88458        40.24673        -0.28629
C         31.57823        39.37836        -0.15253
C         32.89112        41.45890        -1.26200
C         31.59146        42.32909        -1.19485
C         32.97633        44.07613        -2.16969
C         31.86288        43.54240        -1.79660
C         35.40810        27.26744        -0.01227
C         35.28933        28.66805         0.43451
C         33.95897        29.39988         0.46441
C         35.23109        31.60702         0.61375
C         34.10250        30.77209         1.23907
C         35.37477        32.99258         1.23977
C         34.00240        33.72798         0.95357
C         34.94145        35.89356        -0.32469
C         33.81800        35.07738         0.26751
C         35.22781        37.13657         0.21931
C         34.16674        37.72223         1.04511
C         35.36832        40.18035        -0.48467
C         34.09746        39.49031        -0.84325
C         35.31773        41.65184        -0.58854
C         34.15350        42.29563        -0.95399
C         35.51209        44.32126        -1.56298
C         34.11580        43.84144        -1.12974
C         35.77315        45.79467        -1.66331
C         37.56845        27.27928        -1.11908
C         36.45203        26.69276        -0.35912
C         37.59631        28.78308        -0.88230
C         36.50188        29.45513        -0.04773
C         37.69273        31.71767        -0.28581
C         36.39033        30.96691        -0.10630
C         37.80607        33.07690         0.31499
C         36.59770        33.73231         0.76504
C         37.79551        35.84319         0.52548
C         36.72381        35.04266         1.19897
C         37.69943        37.35879         0.74614
C         36.50907        37.93236        -0.14070
C         37.70603        40.21359         0.33303
C         36.45127        39.46736        -0.06496
C         37.73726        41.65747        -0.17239
C         36.59703        42.35591        -0.42984
C         37.92586        44.56910        -0.52899
C         36.56152        43.87702        -0.47684
C         37.96891        46.15501        -0.56041
C         36.82078        46.42386        -1.50410
C         40.12265        24.62596        -0.76298
C         39.05207        25.12215        -1.19596
C         40.17974        27.32056        -1.30469
C         38.85610        26.57545        -1.42626
C         40.19621        28.72978        -0.71605
C         38.93995        29.52861        -1.19968
C         40.25373        31.55285        -0.12388
C         38.94141        30.99012        -0.69582
C         40.28369        33.09103        -0.20543
C         39.03861        33.71491         0.40737
C         40.27031        35.86899         0.74494
C         39.11233        35.12982         0.76801
C         40.21259        37.32400         0.60738
C         39.03188        38.00999         0.47065
C         40.14679        40.22696         0.77358
C         39.03430        39.46651         0.04467
C         40.09781        41.70950         0.62850
C         39.09169        42.32336        -0.34491
C         40.38600        44.51093        -0.18359
C         39.03571        43.85378        -0.26617
C         40.46081        46.04326        -0.09932
C         39.35831        46.72133        -0.97558
C         40.34363        48.99779        -0.10791
C         39.61268        48.16795        -0.63491
C         42.56396        24.84655         0.17439
C         41.40245        25.14340        -0.52656
C         42.80280        27.27640        -1.11278
C         41.47994        26.55334        -1.14580
C         42.82673        28.77081        -1.00733
C         41.51130        29.49066        -1.06247
C         42.80439        31.73649        -0.65740
C         41.50344        30.97803        -0.80296
C         42.82876        33.01013         0.04977
C         41.53877        33.66914         0.48929
C         42.80612        35.82720         0.96725
C         41.56616        35.21429         0.29036
C         42.75023        37.31662         0.84563
C         41.51778        38.06663         0.32718
C         42.73080        40.18219         1.23630
C         41.44159        39.46659         1.00669
C         42.84160        41.43174         1.71952
C         40.95555        42.51940         1.29346
C         42.57936        44.48944         1.04017
C         41.20728        43.92222         0.95833
C         42.92914        45.69770         0.20880
C         41.93091        46.37793        -0.43485
C         42.55278        49.00075         0.87552
C         41.37790        49.68190         0.61381
C         43.59358        25.55206         0.44136
C         45.26014        27.34090        -0.43708
C         44.08343        26.46579        -0.71407
C         45.28434        28.72095        -0.63240
C         44.01989        29.44294        -0.80014
C         45.40548        31.58067        -0.33430
C         44.11312        30.92755        -0.73721
C         45.40529        32.91305         0.00495
C         44.14237        33.59294         0.51821
C         45.47754        35.82960         0.49005
C         44.18017        35.12629         0.16925
C         45.69504        37.11702        -0.03674
C         43.80262        38.05525         1.30908
C         45.33340        40.06788         1.07139
C         43.96587        39.45138         0.77371
C         45.27799        41.58611         0.93683
C         44.07674        42.27520         1.65032
C         44.95474        44.65208         1.19218
C         43.82793        43.64268         0.91742
C         44.43072        45.98596         0.38708
C         44.53832        47.29686         1.17074
C         43.54341        48.24195         1.04824
C         47.74516        27.20249        -0.55714
C         46.57894        26.83166        -0.35033
C         47.86436        28.66032        -1.07528
C         46.57034        29.43803        -0.71066
C         47.94583        31.57517        -0.66188
C         46.63125        30.80366        -0.54532
C         47.91335        32.89773         0.09568
C         46.67560        33.76209        -0.06927
C         47.98771        35.86093         0.81064
C         46.68915        35.04661         0.92318
C         47.96081        37.27616         0.80141
C         46.70520        37.97021         0.57403
C         47.74106        40.27470         0.43952
C         46.52467        39.41083         0.80081
C         47.79728        41.76346         0.82941
C         46.50931        42.46103         1.16238
C         47.30536        44.40037        -0.27476
C         46.33828        43.94024         0.87799
C         46.69803        45.72930        -0.65998
C         45.48905        46.02957        -0.67711
C         50.44628        28.77897        -0.87111
C         49.11579        29.28353        -0.50630
C         50.51241        31.48575        -0.30106
C         49.19240        30.78441        -0.26834
C         50.59005        32.92781         0.19907
C         49.20299        33.58371         0.35427
C         50.56164        35.52357         0.86822
C         49.22305        35.10586         0.32447
C         50.41618        37.73440         1.13488
C         49.15051        38.12312         0.76432
C         50.17890        40.24668        -0.11255
C         49.08631        39.64175         0.80145
C         50.05788        41.75485        -0.34390
C         48.99757        42.55094         0.31449
C         49.82677        44.46419        -0.89446
C         48.79161        44.15799         0.13925
C         51.51407        29.40823        -0.76683
C         52.83896        31.70490        -0.66587
C         51.70713        30.81727        -0.57483
C         52.88166        32.93057        -0.48462
C         51.69286        33.87066        -0.52620
C         52.70557        36.21974         0.43730
C         51.74887        35.14550         0.29308
C         52.70853        37.42494         0.75004
C         51.66267        38.43653         0.79460
C         52.51047        40.67134        -0.23774
C         51.59419        39.72981         0.31949
C         52.41445        41.82191        -0.71991
C         51.10808        42.35780        -1.32600
C         50.79413        43.81236        -1.27954
O         33.63297        33.82027        -0.45861
O         43.59504        31.64375        -1.90240
O         35.27476        31.56044        -0.83396
O         38.21604        31.79209        -1.67534
O         36.35332        29.01786         1.34783
O         50.55587        36.52562         1.82728
O         46.80407        43.46329         2.17213
O         41.69655        44.67036         2.17061
O         49.00420        29.82368         0.82354
O         39.53960        27.07798        -2.58293
O         37.06966        28.19563        -2.11468
O         41.59986        38.22604        -1.10283
O         48.84477        42.21339         1.74599
O         41.33219        30.45367        -2.13689
O         41.74879        42.04762         2.36102
O         42.27409        26.69601        -2.36451
O         31.71517        35.03533         2.59077
O         48.46163        32.92960         1.44998
O         40.45591        39.63473         2.06861
O         41.59704        35.52284        -1.12106
H         41.55826        36.52900        -1.24412
O         39.27947        39.47173        -1.37972
H         40.15153        38.96606        -1.50966
O         51.10294        32.84278         1.54640
H         50.46962        32.31126         2.07650
O         41.37897        33.43616         1.92959
H         40.76016        34.11544         2.28051
O         45.65392        47.56476         1.86838
H         46.18706        46.74899         1.98147
O         40.17463        46.52087         1.21865
H         40.78191        46.09440         1.87211
O         31.29488        38.70657        -1.33003
H         31.51837        39.26689        -2.10343
O         44.47515        25.63716        -1.77946
H         43.68074        25.46875        -2.34265
O         46.72383        34.27050        -1.43205
H         45.81455        34.59871        -1.66311
O         48.13479        31.91079        -2.05568
H         47.45401        32.57754        -2.30654
O         51.33811        34.10048        -1.86524
H         51.76067        34.92243        -2.18668
O         47.95723        28.62194        -2.47919
H         48.84122        28.27799        -2.72979
O         42.16938        47.31943        -1.38373
H         43.13471        47.41219        -1.52038
O         49.06876        44.80136         1.35728
H         49.00364        44.13549         2.08101
O         50.06359        39.61642        -1.42960
H         49.11413        39.69035        -1.70245
O         32.95502        40.95667        -2.60277
H         32.98053        41.72506        -3.21378
O         44.20118        33.36885         1.96261
H         45.06274        33.75172         2.29162
O         34.50864        38.77670         1.81268
H         33.68626        39.19678         2.17006
O         37.64558        40.33091         1.79574
H         36.75864        40.67731         2.03295
O         49.39228        39.83938         2.19861
H         49.52212        40.79460         2.40237
O         39.54414        46.47139        -2.35112
H         40.46104        46.71801        -2.59687
O         41.19274        50.94663         1.05846
H         40.29712        51.25852         0.82221
O         39.51046        42.06923        -1.71710
H         39.45489        41.08123        -1.86796
O         33.17765        40.80244         1.00784
H         32.33092        41.12830         1.38718
O         44.62820        37.62724         2.29519
H         44.26251        36.76888         2.63400
O         44.07050        35.19507        -1.27052
H         43.11455        35.04094        -1.53921
O         36.80780        37.73649        -1.53134
H         35.97460        37.90612        -2.02974
O         34.02465        38.57624        -1.64451
O         32.05833        36.01759        -1.01350
H         32.09240        35.12210        -1.41138
O         33.72517        44.49468         0.05318
H         32.81641        44.21699         0.28928
O         49.26911        35.45456        -1.10019
H         48.41778        35.15433        -1.50703
O         43.75521        43.43357        -0.51089
H         44.64326        43.52583        -0.92393
O         34.51655        30.44943         2.58166
H         33.81105        29.91125         3.00293
O         45.25554        41.65742        -0.52798
H         44.55236        41.02909        -0.86455
O         36.00565        35.50315         2.23110
H         35.63478        34.72905         2.72581
O         44.47941        42.51751         3.01692
H         43.65857        42.59723         3.55146
O         50.96683        41.85194        -2.62065
H         50.87780        40.86822        -2.54410
O         45.04892        37.57200        -1.10586
H         44.42319        36.87466        -1.43481
O         47.60786        40.31483        -1.01723
H         46.74646        40.77891        -1.20095
O         31.77127        39.07084         2.25375
H         31.52694        38.46718         2.98684
O         37.39856        37.59903         2.13194
H         37.58724        38.55302         2.31861
O         37.72191        35.57943        -0.89684
H         38.42333        36.10508        -1.33770
O         47.03237        43.50972        -1.36676
H         47.56754        43.79730        -2.13775
O         35.85641        43.68554        -2.78408
H         35.25175        44.01165        -3.48286
O         35.44045        35.39345        -1.45637
H         35.07670        34.48675        -1.58680
O         40.35688        33.43052        -1.59384
H         39.52292        33.12715        -2.02305
O         33.17042        33.03496         3.16402
H         32.80465        33.85371         3.57146
O         40.26012        31.13328         1.26588
H         40.73492        31.82773         1.80191
O         36.04399        44.28501         0.82179
H         36.63772        43.92095         1.51166
O         37.62951        46.63439         0.71851
H         36.76547        46.23411         0.96802
O         46.56711        34.56912         2.28249
H         47.35176        33.98903         2.45548
O         42.91205        35.52885         2.35697
H         43.04496        34.54849         2.47555
O         43.85483        39.50598        -0.68269
H         42.99722        39.04228        -0.98941
O         35.57471        32.88624         2.66319
H         35.07141        32.10705         3.01675
O         39.04501        29.57487        -2.61479
H         38.45305        30.28442        -2.94743
O         44.96664        45.06480         2.54941
H         45.24043        44.28083         3.09087
O         41.10267        44.17462        -1.39792
H         40.69844        43.35469        -1.78612
O         33.56368        29.63544        -0.86407
H         33.66569        28.81675        -1.39238
O         40.13781        28.50645         0.70122
H         40.19118        29.37672         1.17751
