         576
 CSIRO Nanostructure Databank - Neutral Graphene Oxide Data Set
C          6.10354        19.33950         0.89363
C          5.95958        20.59235         0.39203
C          4.66042        21.23783         0.30195
C          5.69309        23.32947        -0.45242
C          4.54203        22.55332        -0.01166
C          5.71913        24.67913        -0.35472
C          9.04928        15.42949         2.36865
C          8.97676        16.89091         1.97407
C          7.62969        17.36518         1.47989
C          8.48737        19.32959         0.21109
C          7.48409        18.85112         1.25660
C          8.33197        20.52282        -0.41946
C          7.18946        21.42107         0.03258
C          8.05463        23.30079        -1.46903
C          6.81733        22.49005        -1.02566
C          8.08815        24.80948        -1.37427
C          6.84490        25.53859        -0.80041
C          7.71013        27.88523        -0.58535
C          6.90158        26.86519        -0.14296
C          8.00517        29.18217        -0.08414
C         11.13059        10.91073         2.51762
C         11.03377        12.28498         2.07448
C         10.00842        13.15874         2.37698
C         10.72285        14.87679         0.61051
C          9.93537        14.52685         1.86810
C         10.85538        16.36250         0.34246
C          9.81644        17.21664         0.74298
C         10.76010        18.94125        -0.91089
C          9.59310        18.40788        -0.07848
C         10.70761        20.35287        -1.40220
C          9.38940        21.08655        -1.31055
C         10.70003        23.30990        -1.76287
C          9.35782        22.56951        -1.60229
C         10.67304        24.71163        -1.15987
C          9.43814        25.43452        -1.27230
C         10.67078        27.53878        -0.72351
C          9.51299        26.82031        -1.25047
C         10.57817        28.97945        -0.29492
C          9.29524        29.78932        -0.19779
C         10.66335        31.80380         0.45878
C          9.39797        31.13693         0.12130
C         10.73363        33.26172         0.57983
C         13.72980         6.74353         3.27059
C         13.60529         8.07431         2.72274
C         12.39962         8.76924         2.78935
C         13.52636        10.75549         1.87666
C         12.27032        10.12731         2.34986
C         13.48751        12.16996         1.41378
C         12.14465        12.79044         1.22432
C         13.32665        14.79732         0.05633
C         12.04116        14.10233         0.52901
C         13.32286        16.32684         0.15475
C         12.00663        16.93247        -0.26291
C         13.25611        18.97665        -0.94973
C         12.05577        18.28457        -0.69772
C         13.25147        20.39704        -1.25809
C         11.97834        21.12980        -1.38790
C         13.18775        23.28634        -1.45399
C         11.93539        22.49589        -1.41581
C         13.16463        24.62710        -0.74965
C         11.89996        25.42266        -1.00963
C         13.18304        27.54537        -0.65407
C         11.95249        26.81706        -0.85541
C         13.14266        28.92321        -0.46060
C         11.87483        29.75641        -0.55155
C         13.19773        31.83994         0.15027
C         11.95622        31.04364         0.26244
C         13.16942        33.21974         0.28879
C         11.93634        33.94050         0.54257
C         13.15104        36.09729         0.74791
C         11.99487        35.36788         0.81663
C         13.24775        37.47321         1.21094
C         16.08566         6.58202         2.56419
C         14.90296         6.05365         3.22182
C         16.01182         7.91753         1.99803
C         14.79161         8.65204         2.09975
C         15.86903        10.55176         0.93320
C         14.70985         9.94739         1.57529
C         15.85395        12.04818         0.54791
C         14.61209        12.77110         0.69493
C         15.86344        14.94348         0.31101
C         14.58342        14.25891         0.80537
C         15.77607        16.07020        -0.71752
C         14.53165        16.90301        -0.54313
C         15.76732        18.91215        -1.13586
C         14.52769        18.25730        -0.87829
C         15.77987        20.36591        -1.50078
C         14.45519        21.07515        -1.36958
C         15.70064        23.27813        -1.02808
C         14.49680        22.54625        -1.47801
C         15.69499        24.67988        -0.94116
C         14.44854        25.40634        -0.91579
C         15.69979        27.48682        -0.78491
C         14.44422        26.78830        -0.74716
C         15.67594        28.89871        -0.34801
C         14.39326        29.65742        -0.16555
C         15.64350        31.85174        -0.08448
C         14.43313        31.15232        -0.09806
C         15.70808        33.28727         0.09501
C         14.40748        33.98131         0.03540
C         15.67576        36.16202         0.42734
C         14.39173        35.47254         0.22715
C         15.57191        37.66129         0.29590
C         14.37971        38.19661         1.06634
C         18.39890         6.31156         1.64853
C         17.24775         5.85436         2.49276
C         18.41598         7.79939         1.40272
C         17.19283         8.52716         1.47277
C         18.32989        10.56607         0.59941
C         17.18023         9.90478         1.07022
C         18.36261        11.96470         0.34738
C         17.17793        12.76970         0.82928
C         18.34064        14.77795        -0.35709
C         17.16730        14.21647         0.35588
C         18.29939        16.15641        -0.74437
C         17.06117        16.85081        -0.75843
C         18.26961        18.92083        -1.21467
C         17.01972        18.22946        -1.02230
C         18.26242        20.36726        -0.92998
C         16.93749        21.06542        -0.79374
C         18.27019        23.30667        -0.59357
C         16.89688        22.55142        -0.65382
C         18.21177        24.73017        -0.95057
C         16.95944        25.39326        -0.96109
C         18.14833        27.59271        -1.43575
C         16.90668        26.82466        -1.01575
C         18.21331        28.95695        -0.77158
C         16.95951        29.65353        -0.37819
C         18.20405        31.88980        -0.29083
C         16.88792        31.14407        -0.43067
C         18.13374        33.20341         0.38407
C         16.89863        33.98909         0.37316
C         18.07818        36.30233         0.69539
C         16.88448        35.47638         0.53710
C         18.07505        37.76183         0.60688
C         16.84333        38.40071         0.55849
C         20.90153         6.41935         1.62911
C         19.73900         5.77906         2.04374
C         20.83511         7.73675         1.01074
C         19.59130         8.40777         0.93027
C         20.78915        10.49467         0.10304
C         19.50152         9.71971         0.17962
C         20.75258        11.85863        -0.18195
C         19.53391        12.61257        -0.10351
C         20.70490        14.71148        -0.90167
C         19.53035        14.04544        -0.42431
C         20.71249        16.07496        -1.26707
C         19.49946        16.82811        -1.15502
C         20.60248        18.95195        -2.12173
C         19.47876        18.24314        -1.36235
C         20.68156        20.53612        -1.87242
C         19.49819        21.14372        -1.09007
C         20.77270        23.22645        -0.93258
C         19.49182        22.49311        -0.87319
C         20.74186        24.71543        -1.02587
C         19.44769        25.46535        -1.15674
C         20.75644        27.59223        -1.58417
C         19.45256        26.82966        -1.31248
C         20.74830        29.04782        -1.08402
C         19.45167        29.78482        -0.88953
C         20.56350        31.52556         0.55317
C         19.39520        31.05176        -0.14079
C         20.57725        32.95761         0.90376
C         19.26893        33.54543         1.08761
C         20.53501        35.90732         0.59041
C         19.29164        35.68801         1.13148
C         20.59128        38.06767         0.63408
C         19.27622        38.55103         0.84516
C         23.35141         6.41305         1.36995
C         22.17586         5.80151         1.81629
C         23.26177         7.70561         0.74106
C         22.04489         8.37997         0.58999
C         23.20321        10.41366        -0.29840
C         22.02658         9.77601         0.13658
C         23.22981        11.77564        -0.72039
C         22.04592        12.62612        -0.32438
C         23.14917        14.56351        -1.64365
C         21.90199        13.88755        -1.14522
C         23.13699        16.04078        -1.68208
C         21.95666        16.74373        -1.63315
C         23.22914        18.93823        -1.57337
C         22.01134        18.19918        -2.14211
C         23.23077        20.36454        -1.39511
C         22.01234        21.10780        -1.38277
C         23.27483        23.23336        -1.15111
C         22.03651        22.49359        -1.19045
C         23.28048        24.66405        -1.15747
C         21.99995        25.40292        -1.51637
C         23.25381        27.57711        -1.03606
C         21.94193        26.83021        -0.95434
C         23.20236        28.93276        -0.66504
C         21.98170        29.60367        -0.51029
C         23.12262        31.66219         0.46776
C         21.92959        30.81881         0.29807
C         23.03643        32.98429         0.83538
C         21.76326        33.67208         0.94868
C         23.01595        35.97934         1.05845
C         21.78051        35.15063         0.78381
C         22.96633        37.43631         1.57494
C         21.79075        38.37508         1.27151
C         25.83348         6.36312         1.16571
C         24.62577         5.78209         1.55478
C         25.82625         7.72263         0.56695
C         24.50949         8.39013         0.36102
C         25.65541        10.19365        -1.08097
C         24.39994         9.58098        -0.52666
C         25.66022        11.67657        -1.16444
C         24.40548        12.38014        -1.17218
C         25.67935        14.55011        -1.28462
C         24.46265        13.78752        -1.74965
C         25.62529        16.06072        -1.20171
C         24.45370        16.74978        -1.94153
C         25.70342        18.91152        -1.40660
C         24.42797        18.22584        -1.54558
C         25.69780        20.35291        -1.33063
C         24.48514        21.06694        -1.26765
C         25.73254        23.25279        -1.18490
C         24.49992        22.51596        -1.18842
C         25.72450        24.67789        -1.18882
C         24.49456        25.39015        -1.16158
C         25.69771        27.57315        -0.95816
C         24.50163        26.86066        -1.08113
C         25.65979        29.08742        -1.00936
C         24.46162        29.62169        -0.27008
C         25.64872        31.88243         0.28611
C         24.43291        31.02624         0.24224
C         25.57796        33.07441         0.95277
C         24.26849        33.70111         1.25585
C         25.50984        35.95300         1.49631
C         24.24119        35.20842         1.48947
C         25.51194        37.37071         1.37004
C         24.30056        38.08728         1.30550
C         28.28719         6.43368         1.06189
C         27.09061         5.78689         1.44707
C         28.21662         7.56341         0.13270
C         27.03218         8.19470        -0.15010
C         28.15886        10.29819        -0.82330
C         26.97536         9.40253        -1.11141
C         28.06684        11.67138        -0.71561
C         26.84822        12.39889        -0.98244
C         28.06443        14.63477        -0.69842
C         26.83675        13.87145        -0.98505
C         28.14055        15.99028        -0.93656
C         26.96432        16.69646        -1.61812
C         28.25455        18.88570        -1.50689
C         26.91740        18.19620        -1.41250
C         28.22239        20.36795        -1.19901
C         26.97680        21.09913        -1.64323
C         28.19700        23.26025        -1.18408
C         26.97788        22.56074        -1.26917
C         28.24903        24.66445        -1.15864
C         27.00028        25.39950        -1.35936
C         28.22071        27.66737        -0.77440
C         26.99846        26.95671        -1.22234
C         28.20863        29.01582        -0.43333
C         26.96476        29.82383        -0.63671
C         28.22636        32.00980         0.17765
C         26.93190        31.26923        -0.16559
C         28.08977        33.18108         1.13703
C         26.77118        33.68398         1.66010
C         28.03534        36.00339         1.84939
C         26.73171        35.21610         1.82277
C         27.99967        37.44680         1.51591
C         26.77950        38.07553         1.33103
C         30.75142         6.69719         1.25738
C         29.53231         6.03825         1.58416
C         30.76515         7.68278         0.26993
C         29.50680         8.11305        -0.34016
C         30.68682        10.33585        -0.32477
C         29.44726         9.59170        -0.74917
C         30.53325        11.79609        -0.78481
C         29.25924        12.39106        -0.10874
C         30.58259        14.61479        -0.12668
C         29.24909        13.91591        -0.16764
C         30.60838        16.03894        -0.46496
C         29.38861        16.73447        -0.75587
C         30.62778        18.89637        -0.48555
C         29.39152        18.12946        -0.84620
C         30.71319        20.29867        -1.21938
C         29.39320        21.02742        -1.05798
C         30.50430        23.15088        -0.23155
C         29.50424        22.51222        -1.28936
C         30.82255        24.63072        -0.75101
C         29.52927        25.40217        -1.08832
C         30.66478        27.54874        -0.13468
C         29.49957        26.91809        -0.80584
C         30.56928        28.92359         0.27704
C         29.39195        29.67220         0.10446
C         30.51405        31.71453         0.94690
C         29.38497        31.08009         0.49260
C         30.51677        33.12069         1.37576
C         29.25074        33.86509         1.42604
C         30.50891        35.99839         1.55481
C         29.30483        35.27704         1.68234
C         30.47638        37.44926         1.48481
C         29.25906        38.12601         1.41572
C         33.13541         7.07456         1.72524
C         31.99284         6.37357         1.94784
C         33.23129         8.09860         0.69700
C         32.07770         8.21106        -0.28941
C         33.06844        10.37832        -0.99629
C         31.96258         9.65754        -0.74180
C         33.03109        11.87116        -1.26919
C         31.82569        12.54541        -0.64517
C         33.14092        14.56390        -0.22313
C         31.86192        13.85436        -0.29472
C         33.10762        15.95307        -0.20192
C         31.86879        16.70118        -0.43768
C         33.17873        18.78882        -0.62000
C         31.89317        18.08837        -0.56405
C         33.15736        20.30023        -0.58758
C         31.88121        21.05617        -0.58565
C         33.01438        23.06882         0.32090
C         31.80894        22.34888        -0.17616
C         33.01764        24.56013         0.49360
C         31.65357        25.29147         0.38631
C         32.99105        27.43700         0.69652
C         31.77606        26.79335         0.22225
C         33.06280        28.90519         0.73587
C         31.74946        29.52318         0.93629
C         33.05194        31.71558         1.17144
C         31.76592        31.00600         1.22720
C         33.03734        33.19155         0.87590
C         31.81208        33.86346         1.44814
C         32.99042        36.02426         1.35915
C         31.76969        35.33520         1.42676
C         32.93711        37.46486         1.36482
C         31.74230        38.13570         1.40113
C         34.29732         8.93409         0.59878
C         35.19857        11.20659        -0.30454
C         34.44432         9.87674        -0.58426
C         35.64391        11.95828        -1.53316
C         34.37094        12.41556        -0.76173
C         35.62383        14.48811        -0.15980
C         34.40157        13.81967        -0.27181
C         35.67244        15.90391         0.22789
C         34.33065        16.69851         0.12535
C         35.64866        18.78852        -0.18289
C         34.42040        18.11697        -0.19007
C         35.68409        20.23453        -0.22861
C         34.38445        20.90788        -0.02370
C         35.58945        23.10370        -0.02220
C         34.33802        22.36139         0.26110
C         35.56629        24.61102         0.00315
C         34.29305        25.28334         0.28676
C         35.55341        27.48591         0.29041
C         34.32648        26.68549         0.60731
C         35.53901        29.01505         0.38720
C         34.23996        29.59202         0.90433
C         35.52107        31.74105         1.22293
C         34.24371        31.02706         1.10417
C         35.50809        33.13983         1.35289
C         34.31122        33.91154         1.25576
C         34.23972        35.29733         1.37507
C         36.85332        12.76709        -1.39926
C         38.12632        14.60896        -0.40849
C         36.88023        13.91084        -0.62649
C         38.17277        15.95920        -0.08724
C         36.91272        16.67452         0.03455
C         38.16764        18.77830        -0.21482
C         36.88799        18.05388        -0.06503
C         38.15522        20.28982        -0.16421
C         36.85345        20.96395        -0.03905
C         38.04501        23.10355         0.36252
C         36.86270        22.38635         0.15188
C         38.01563        24.54972         0.50963
C         36.83780        25.26532         0.36349
C         38.06414        27.45992         0.80816
C         36.85611        26.74034         0.35070
C         37.97058        28.82966         1.13166
C         36.78007        29.60338         1.03426
C         36.72724        30.97256         1.32170
C         39.40329        16.68296         0.09372
C         40.59191        18.85996         0.35924
C         39.42771        18.07648         0.12087
C         40.57362        20.26775         0.45376
C         39.36064        21.00856         0.27532
C         40.48967        23.12607         0.83447
C         39.29882        22.39273         0.49468
C         40.44089        24.52054         0.99697
C         39.24661        25.26964         0.82952
C         39.22622        26.67396         1.00170
C         41.75173        21.02026         0.80060
C         41.71066        22.37993         0.97569
O          7.12259        25.46648        -2.23684
O         27.32952        35.65058         3.10420
O         11.36073        31.04809         1.57128
O         17.50254        22.99540         0.59379
O         29.77173        26.37213        -2.14880
O         31.58173        30.02404         2.30230
O         20.92543        24.10319         0.28079
O         32.95569        23.66990         1.67570
O         17.52200        20.47063         0.37838
O         15.07703        29.03834         0.99477
O         15.76358        11.02132        -0.48605
O         20.16882        29.91261        -2.15711
O         11.83786        12.84622        -0.22564
O         29.64465         8.54416        -1.73328
O         14.25903        34.89847        -1.13106
O         29.77284        14.44175         1.11631
O         21.15153        30.62446         1.53395
O         27.04940        26.30644        -2.52690
O         38.29223        19.57032        -1.44662
O         31.27416        33.26852         2.65549
O         13.86313        11.90041         2.82960
O         16.77463        15.18204         1.42092
O         22.20460        13.87789        -2.57005
O          8.50920        22.83730        -2.78154
O         35.55231        23.84969        -1.28297
O         33.66108        26.92188         1.90353
O         36.21729        27.12468        -0.95517
O         27.04279        30.93257        -1.59749
O         24.11482        34.27375         2.60236
O         33.39948        19.60917        -1.83733
O         10.58162        27.97419         0.75363
O         19.17770        34.59293         2.01191
O         20.66498        36.97235        -0.28110
O          9.80144        20.41916        -2.54821
O         17.54116        31.74506        -1.59211
O         22.71462        35.61473        -0.29604
O         13.91046        23.16837        -2.70202
O         17.84210        29.04801         0.63711
O         25.33877         8.74201         1.54735
O          9.75595        18.10111        -1.51585
O         29.87070        23.23337         0.96463
O         24.69417         9.48909        -1.95806
O         34.35725        21.40210         1.36776
O          8.49095        27.58533        -1.75326
O         24.63466        29.83344         1.15004
O         34.91933        16.28922         1.40722
O         30.87182        20.18374        -2.59965
O         22.39852        18.10022        -3.51352
O         28.62702        18.81820        -2.94514
H         29.53717        19.28677        -3.01297
O         30.83466        10.19945         1.11378
H         30.09177        10.68588         1.55606
O         27.02286        21.08493        -3.11341
H         27.46016        20.24012        -3.39023
O         13.42613        14.48263        -1.34532
H         13.04695        13.57799        -1.46442
O         14.41777        14.56294         2.21938
H         14.72111        13.78961         2.74755
O         22.86486        37.21728         3.02800
H         23.20660        38.01334         3.48664
O         16.13740        20.47613        -2.92087
H         15.39259        20.12754        -3.45568
O          6.28599        21.79361        -2.16233
H          6.96679        21.82644        -2.87624
O         22.36729        13.13273         1.01997
H         22.38166        12.36905         1.63528
O          9.87862        14.43712        -0.48924
H         10.16050        13.51983        -0.71768
O          9.45191        17.61616         3.11683
H          9.13507        18.54976         3.04498
O         31.66230        24.57018        -1.88316
H         31.15294        24.13995        -2.61675
O         35.56366        29.53019        -0.98256
H         36.08289        28.88011        -1.51543
O         25.41219        16.37436         0.20403
H         26.10060        15.91613         0.73171
O         21.96107        25.37250        -2.95559
H         22.54281        26.07764        -3.30950
O         20.94370        27.65299        -3.01010
H         20.41001        28.41931        -3.33013
O          7.82251        19.59782         2.49664
H          7.12725        19.38482         3.15611
O         24.66290        16.72959        -3.35947
H         23.86041        17.20287        -3.73632
O         30.50957        19.32577         0.91613
H         30.44183        18.52220         1.47510
O         20.08395        18.78827        -3.46471
H         20.86029        18.41273        -3.98771
O         29.14483        12.06340         1.30135
H         29.49700        12.84365         1.80131
O         32.90132        33.30796        -0.57898
H         33.71441        32.94163        -0.98775
O         17.26334        12.78420         2.28361
H         17.12769        13.72043         2.56792
O         18.13883         5.71778         0.29713
H         18.86316         6.02635        -0.29033
O         10.88948        23.57732        -3.17932
H         10.00273        23.50795        -3.60898
O         15.26507        37.88895        -1.13354
H         14.69200        37.15221        -1.44170
O         30.21816        11.78321        -2.19656
H         31.06705        11.79079        -2.70538
O         35.48228        11.36744        -2.81860
H         36.10303        11.80435        -3.43673
O         13.08975        24.26071         0.66976
H         13.13456        25.08541         1.20002
O         26.68508        33.11061         2.99883
H         26.97325        33.81301         3.62919
O         30.93703        25.14037         1.60895
H         31.36248        24.40035         2.11590
O         11.78794        30.22726        -1.93310
H         11.85191        29.45630        -2.53553
O         32.88200        12.10197        -2.70095
H         33.66619        11.69167        -3.13904
O         24.70398        13.58544        -3.17363
H         23.82322        13.48010        -3.60070
O         20.55676        21.17137        -3.16886
H         20.25313        20.45803        -3.79347
O         27.17725        16.49462        -3.03057
H         27.81598        17.17901        -3.34625
O         30.03370        22.67517        -2.60789
H         30.44882        21.79232        -2.88213
O         21.62943        26.75697         0.45856
H         21.94623        25.90434         0.82816
O         35.12133         9.08543        -1.57018
H         35.17724         9.60191        -2.40420
O          7.64432        22.12770         1.21288
H          7.79583        21.44350         1.91187
O         28.64300        32.72312        -1.03659
H         28.37728        32.16013        -1.80323
O         27.12953         8.88234        -2.44941
H         26.22465         8.74152        -2.81122
O         32.37058         7.38316        -1.44405
H         31.63041         7.50996        -2.07854
O         17.96472        27.89115        -2.85851
H         18.09973        27.06142        -3.36386
O         19.21209         9.33280        -1.21853
H         18.25215         9.13740        -1.28064
O         13.43398        16.79193         1.53123
H         14.19906        16.35473         1.97432
O         25.37613        29.36808        -2.40641
H         26.13606        29.06146        -2.94497
O         15.73737        15.45852        -2.04826
H         14.83983        15.05654        -2.16948
H          5.22387        18.74666         1.18800
H          3.77723        20.65783         0.60954
H          3.56659        23.05707         0.06249
H          4.85749        25.19349         0.10043
H          8.42464        15.14418         3.23055
H          7.15851        16.73380         0.70710
H          6.33308        26.98852         0.78888
H          7.20555        29.77284         0.38853
H         10.25274        10.46855         3.01392
H          9.21523        12.83591         3.07029
H          8.47062        31.71074         0.27649
H          9.79214        33.82539         0.66575
H         12.84851         6.29605         3.75366
H         11.52438         8.27214         3.23541
H         11.07298        35.85404         1.17089
H         12.36772        37.91093         1.70690
H         14.96712         5.04725         3.66134
H         14.41676        39.23669         1.42365
H         17.29593         4.85134         2.94390
H         16.79877        39.49936         0.59029
H         19.80271         4.77739         2.49524
H         19.13984        39.54223         1.30249
H         22.22344         4.81768         2.30566
H         21.78504        39.25584         1.93546
H         24.64580         4.79641         2.04428
H         24.33564        39.17674         1.15679
H         27.14240         4.86508         2.04573
H         26.75799        39.15956         1.14204
H         29.55969         5.20980         2.30815
H         29.25655        39.21636         1.26545
H         34.03181         6.86646         2.32909
H         31.96430         5.59107         2.72015
H         33.88023        38.02919         1.32060
H         31.73405        39.23550         1.37493
H         35.14619         8.83233         1.29341
H         35.84325        11.28937         0.58679
H         36.45806        33.66502         1.54035
H         35.16721        35.87426         1.51758
H         37.75620        12.44421        -1.93894
H         39.06240        14.06272        -0.59561
H         38.87127        29.32516         1.52846
H         37.65241        31.49421         1.61530
H         40.33975        16.11440         0.19859
H         41.54356        18.33679         0.54106
H         41.36868        25.05831         1.24617
H         40.15540        27.17578         1.31327
H         42.70140        20.48021         0.92896
H         42.63012        22.92527         1.23534
