         630
 CSIRO Nanostructure Databank - Neutral Graphene Oxide Data Set
C         23.14376        27.31927        -1.66311
C         23.11432        28.69253        -1.54060
C         23.09632        31.61992        -1.28809
C         23.08907        33.04929        -1.14731
C         23.09551        35.97753        -1.21266
C         23.11798        37.35765        -1.26851
C         23.18690        40.25556        -1.54251
C         23.23521        41.61623        -1.76613
C         23.35814        44.44459        -2.46713
C         23.35761        45.82437        -2.58893
C         25.57754        24.50543        -1.46324
C         24.39993        25.19065        -1.63575
C         25.57155        27.32811        -1.28709
C         24.36355        26.60982        -1.52912
C         25.53205        28.74826        -1.16348
C         24.29551        29.43658        -1.27766
C         25.47316        31.62602        -0.65685
C         24.24433        30.88268        -1.13990
C         25.55389        33.02989        -1.25792
C         24.24979        33.77840        -1.08974
C         25.51712        35.92816        -0.91278
C         24.28667        35.23161        -1.06480
C         25.54395        37.35067        -0.97122
C         24.33408        38.07153        -1.17811
C         25.61470        40.19551        -1.29661
C         24.36893        39.51019        -1.32595
C         25.65594        41.58979        -1.54582
C         24.47259        42.30273        -1.81009
C         25.72659        44.45086        -1.85360
C         24.51788        43.74044        -2.06996
C         25.72761        45.87872        -1.95543
C         24.52571        46.56683        -2.30783
C         25.66694        48.70043        -2.07598
C         24.52667        47.99198        -2.35668
C         28.01364        23.07019        -0.74921
C         28.02654        24.47276        -0.94019
C         26.80103        25.19236        -1.20318
C         28.04044        27.32034        -0.97111
C         26.80484        26.60739        -1.15880
C         28.00867        28.74754        -0.88110
C         26.77439        29.46958        -0.95300
C         27.97542        31.59355        -0.67207
C         26.76862        30.87173        -0.83882
C         27.95280        33.06245        -0.55931
C         26.76026        33.78347        -0.74475
C         27.95139        35.91289        -0.39996
C         26.75523        35.19972        -0.68455
C         27.98049        37.36607        -0.44102
C         26.78461        38.07266        -0.81024
C         28.05345        40.19134        -0.75792
C         26.82686        39.47070        -0.98141
C         28.11257        41.58924        -0.95827
C         26.99334        42.26834        -1.71038
C         28.08615        44.45747        -1.15317
C         26.93653        43.75955        -1.50393
C         28.10814        45.90532        -1.28012
C         26.91735        46.61166        -1.71110
C         28.10050        48.77566        -1.54173
C         26.89878        48.03848        -1.77156
C         28.14707        50.17907        -1.53068
C         30.38667        23.06663        -0.24092
C         29.15624        22.38840        -0.37986
C         30.44627        24.44538        -0.50520
C         29.26047        25.17628        -0.81220
C         30.50050        27.35742        -0.74323
C         29.27391        26.61957        -0.87663
C         30.46340        28.74449        -0.58731
C         29.21996        29.46053        -0.64832
C         30.39298        31.60811        -0.13440
C         29.18064        30.87829        -0.55309
C         30.42742        33.06617        -0.39653
C         29.15003        33.78897        -0.35129
C         30.41957        35.89282         0.00064
C         29.16263        35.18930        -0.22940
C         30.31647        37.32171         0.47522
C         29.15432        38.07079        -0.14116
C         30.37552        40.23498         0.07958
C         29.20737        39.49664        -0.25647
C         30.42617        41.63373        -0.10019
C         29.27653        42.31473        -0.62923
C         30.44442        44.45837        -0.37346
C         29.29525        43.75176        -0.74698
C         30.40436        45.93158        -0.37819
C         29.26933        46.60923        -1.02158
C         30.60505        48.78235        -1.03763
C         29.40136        48.01558        -1.53603
C         30.57265        50.22295        -1.08271
C         29.33049        50.87668        -1.32228
C         32.87129        20.23921         0.27000
C         31.69514        20.88782         0.08058
C         32.91176        23.10458         0.40416
C         31.58049        22.33871         0.25963
C         32.96016        24.47917        -0.07333
C         31.76231        25.11466        -0.57519
C         33.05532        27.32013        -0.36328
C         31.80365        26.64439        -0.78318
C         33.05187        28.78963        -0.36463
C         31.73561        29.50229        -0.49845
C         32.96775        31.66363         0.11850
C         31.69637        30.90607        -0.00836
C         32.94553        33.07183         0.14665
C         31.72005        33.80316        -0.27754
C         32.93458        36.00523        -0.07823
C         31.62828        35.25799        -0.03091
C         32.83123        37.43007         0.41502
C         31.62426        38.07639         0.43884
C         32.83548        40.27709         0.63367
C         31.52715        39.54586         0.77704
C         32.84704        41.68295         0.52831
C         31.63149        42.38560         0.18569
C         32.88866        44.53392         0.21765
C         31.64901        43.78932         0.03312
C         32.93944        45.93546         0.03082
C         31.68671        46.69479        -0.16693
C         33.04652        48.74277        -0.68954
C         31.74736        48.09431        -0.65253
C         33.02938        50.32092        -0.74953
C         31.72704        50.97268        -0.71935
C         32.83910        53.00438         0.05187
C         31.68969        52.32544        -0.28714
C         35.38342        18.76918         0.63157
C         35.35654        20.18688         0.61020
C         34.12561        20.92852         0.49015
C         35.40630        23.04397         0.48502
C         34.16411        22.32821         0.43642
C         35.44462        24.45626         0.34860
C         34.28892        25.14836        -0.32606
C         35.39188        27.34613         0.41663
C         34.21687        26.63909        -0.04811
C         35.34942        28.75715         0.54904
C         34.20382        29.50992         0.20780
C         35.33894        31.62734         0.82071
C         34.15608        30.91778         0.39333
C         35.22761        33.08788         1.18659
C         34.08242        33.82312         0.53510
C         35.28045        35.94582         0.82666
C         34.09838        35.22779         0.50474
C         35.27432        37.37920         0.86988
C         34.06668        38.12314         0.70864
C         35.24546        40.28249         1.06151
C         34.04539        39.55580         0.80076
C         35.27322        41.69121         1.02318
C         34.07636        42.40832         0.68757
C         35.33130        44.54886         0.69664
C         34.09761        43.82600         0.52918
C         35.36026        45.96884         0.51971
C         34.16648        46.65868         0.14044
C         35.42133        48.78813         0.05874
C         34.23474        48.06360        -0.13137
C         35.52233        50.25621        -0.36553
C         34.21503        51.02399        -0.29057
C         35.34836        53.17854         0.19201
C         34.13176        52.37859         0.03015
C         35.38603        54.55263         0.29927
C         37.82119        18.74575         0.76550
C         36.57265        18.07343         0.70343
C         37.82031        20.16782         0.80140
C         36.59187        20.89057         0.72352
C         37.83645        23.02731         0.90721
C         36.61198        22.31899         0.70764
C         37.83333        24.46787         0.93168
C         36.62824        25.17504         0.63645
C         37.79134        27.29730         1.09072
C         36.61146        26.62314         0.71157
C         37.73743        28.71384         1.50468
C         36.47726        29.47286         1.17678
C         37.76715        31.65267         1.30603
C         36.50777        30.94897         1.11123
C         37.75667        33.09255         1.19781
C         36.53799        33.81680         1.07922
C         37.74501        35.95111         1.16285
C         36.51808        35.22538         1.04236
C         37.72295        37.38688         1.24420
C         36.49333        38.06751         1.17546
C         37.75534        40.27862         1.62055
C         36.42808        39.50925         1.45396
C         37.72912        41.71656         1.33719
C         36.53331        42.40741         1.16614
C         37.72394        44.60417         1.26588
C         36.53639        43.85880         1.01773
C         37.73378        46.00403         1.15842
C         36.56674        46.70902         0.72371
C         37.84011        48.86636         0.67819
C         36.59167        48.13021         0.51856
C         37.88163        50.29267         0.53630
C         36.55220        50.98614         0.49537
C         37.91377        53.20825         0.27941
C         36.62379        52.44579         0.09635
C         37.84756        54.66634         0.48319
C         36.60848        55.27888         0.43408
C         40.31372        15.92706         0.69209
C         39.11682        16.60591         0.74417
C         40.29889        18.75725         0.78260
C         39.07280        18.02738         0.77609
C         40.29020        20.17548         0.87505
C         39.05333        20.88906         0.92836
C         40.28083        22.99613         1.53876
C         39.03343        22.30013         1.07292
C         40.29853        24.48805         1.26718
C         39.05726        25.18678         1.10999
C         40.27386        27.34380         1.27665
C         39.04416        26.61092         1.16150
C         40.29046        28.76840         1.44147
C         39.01674        29.47615         1.87691
C         40.20938        31.66559         1.50959
C         38.97746        30.95357         1.48213
C         40.20261        33.05942         1.37533
C         38.98949        33.80644         1.23537
C         40.19516        35.99971         1.21556
C         38.97176        35.24539         1.22590
C         40.22571        37.38957         1.25801
C         38.97372        38.11940         1.35343
C         40.26451        40.22477         1.64573
C         38.99321        39.50315         1.45629
C         40.26430        41.72555         1.62592
C         39.03267        42.43488         1.08839
C         40.28687        44.55624         1.81780
C         38.96986        43.85881         1.60692
C         40.30182        46.05119         1.76832
C         38.94933        46.78309         1.45463
C         40.30284        48.86305         0.99746
C         39.00756        48.16513         1.01343
C         40.25215        50.33223         1.24375
C         39.04974        51.04901         0.77537
C         40.31591        53.19277         0.92521
C         39.10544        52.46325         0.72764
C         40.32704        54.62867         0.76938
C         39.11046        55.37025         0.65062
C         40.38259        57.45590         0.65716
C         39.16974        56.78165         0.62478
C         42.78671        15.93372         0.55483
C         41.54866        16.63179         0.65168
C         42.78866        18.75940         0.64747
C         41.54819        18.05043         0.70145
C         42.79797        20.19450         0.69904
C         41.53424        20.91334         0.86383
C         42.79975        22.99897         1.22459
C         41.52397        22.27968         1.07640
C         42.78727        24.48972         1.40699
C         41.49339        25.20035         1.30915
C         42.74879        27.34587         1.18239
C         41.51162        26.63578         1.23536
C         42.74624        28.76924         1.26583
C         41.49507        29.45984         1.46860
C         42.77110        31.63042         1.43454
C         41.49990        30.92421         1.87075
C         42.78498        33.10608         1.50521
C         41.46758        33.81935         1.47600
C         42.72247        35.97378         0.84481
C         41.43748        35.23575         1.00243
C         42.71561        37.43342         1.01405
C         41.49592        38.11695         1.22058
C         42.75591        40.23940         1.38391
C         41.53438        39.51992         1.41958
C         42.77574        41.70388         1.43564
C         41.56158        42.43090         1.47799
C         42.79395        44.53967         1.52264
C         41.57484        43.84040         1.55821
C         42.82402        46.00318         1.88307
C         41.55660        46.70175         1.47730
C         42.85054        48.85368         1.50916
C         41.59488        48.12755         1.22826
C         42.81901        50.30701         1.61454
C         41.53023        51.07473         1.47907
C         42.77179        53.19358         0.96763
C         41.55094        52.51716         1.15015
C         42.81176        54.59428         0.75712
C         41.57722        55.32045         0.75912
C         42.86300        57.42335         0.65731
C         41.60006        56.74530         0.69258
C         43.97521        16.61802         0.48621
C         45.25403        18.76777         0.43746
C         44.01165        18.04496         0.52304
C         45.25135        20.19191         0.49828
C         44.00951        20.88433         0.63019
C         45.30210        23.04773         0.87047
C         43.99607        22.38888         0.53394
C         45.33304        24.47023         1.38369
C         44.03603        25.22992         1.18699
C         45.24764        27.35283         0.99475
C         44.00825        26.61919         1.10152
C         45.23119        28.77933         1.03581
C         43.98377        29.49084         1.20944
C         45.23369        31.68861         1.23188
C         43.95307        30.93329         1.27613
C         45.23207        33.15477         0.99242
C         44.01207        33.86095         1.13796
C         45.20684        35.98546         0.83366
C         43.99855        35.24846         0.99001
C         45.20042        37.40581         0.83589
C         43.94944        38.12349         1.02322
C         45.26628        40.20313         1.29291
C         43.96378        39.52111         1.21141
C         45.28304        41.71117         1.37381
C         43.99397        42.42262         1.35380
C         45.27410        44.55812         1.25656
C         44.01840        43.84030         1.35849
C         45.27083        46.00178         1.29264
C         44.07877        46.72494         1.46144
C         45.32609        48.87574         1.25704
C         44.07297        48.15797         1.45167
C         45.34760        50.26192         1.07931
C         44.12450        51.03731         1.32165
C         45.30203        53.12759         0.45666
C         44.00623        52.40812         0.76211
C         45.30039        54.59201         0.60234
C         44.07518        55.29319         0.65637
C         44.04265        56.73095         0.63849
C         47.67883        18.80991         0.19433
C         46.50026        18.10482         0.27179
C         47.70719        20.23061         0.29213
C         46.48356        20.92168         0.43476
C         47.73535        23.08739         0.54944
C         46.48652        22.36502         0.62603
C         47.70015        24.51609         0.57271
C         46.54089        25.21546         0.88461
C         47.70533        27.38059         0.76213
C         46.49517        26.66209         0.87041
C         47.70839        28.79500         0.74119
C         46.46307        29.46584         0.88596
C         47.65814        31.62601         0.38169
C         46.49556        30.93147         1.00585
C         47.63858        33.13120         0.32637
C         46.41535        33.84990         0.73488
C         47.65067        35.98876         0.51975
C         46.44123        35.27620         0.70997
C         47.64269        37.39353         0.44110
C         46.42136        38.10840         0.66328
C         47.65953        40.24641         0.56395
C         46.47456        39.52766         0.79659
C         47.67290        41.69705         0.63778
C         46.50553        42.41268         0.95453
C         47.73078        44.52108         0.86672
C         46.48755        43.84301         0.99657
C         47.76491        45.94740         1.22129
C         46.51460        46.72559         1.19649
C         47.81393        48.84531         1.02215
C         46.55089        48.12075         1.15429
C         47.81672        50.27056         0.83448
C         46.57286        50.98480         0.78831
C         47.78224        53.12535         0.12927
C         46.55998        52.36744         0.56692
C         47.75111        54.52057         0.71805
C         46.58264        55.20279         0.85379
C         50.20210        20.27889         0.17072
C         48.96208        20.95833         0.26990
C         50.21577        23.09285         0.30380
C         48.96587        22.38165         0.35533
C         50.21733        24.52603         0.26777
C         48.91763        25.28779         0.11334
C         50.21908        27.40350         0.41688
C         49.00473        26.62074         0.85465
C         50.19953        28.81767         0.39698
C         48.95409        29.52202         0.59210
C         50.11639        31.66823         0.14650
C         48.95695        30.93484         0.40779
C         50.08834        33.10126         0.01463
C         48.91587        33.82455         0.25580
C         50.03848        36.00997        -0.19602
C         48.98126        35.28587         0.59959
C         50.01829        37.39359        -0.29387
C         48.84730        38.12878         0.14597
C         50.03613        40.26097        -0.23482
C         48.84972        39.53340         0.17052
C         50.04099        41.71124        -0.11561
C         48.88881        42.40908         0.32953
C         50.14744        44.56021         0.27814
C         48.91805        43.83636         0.51455
C         50.24358        45.97619         0.55086
C         49.07345        46.68942         1.11414
C         50.32749        48.86519         1.17672
C         49.02246        48.15150         0.99788
C         50.30420        50.30515         0.75510
C         49.06367        50.98642         0.65653
C         50.28808        53.03012         0.14638
C         49.07039        52.37599         0.35789
C         51.40380        20.95661         0.18056
C         52.70520        23.07835         0.29367
C         51.45093        22.37455         0.25884
C         52.67849        24.53699         0.42209
C         51.40187        25.24477         0.27973
C         52.60133        27.40020        -0.16586
C         51.41791        26.69668         0.19273
C         52.56908        28.83122        -0.26651
C         51.39453        29.52689         0.09706
C         52.56038        31.70318        -0.48167
C         51.46129        31.01565         0.28886
C         52.47536        33.10713        -0.70734
C         51.28056        33.79753        -0.39436
C         52.34339        35.97100        -1.29198
C         51.11756        35.21085        -0.76814
C         52.31388        37.43307        -1.19271
C         51.16955        38.13161        -0.80299
C         52.20829        40.38626        -1.48302
C         51.14237        39.57856        -0.75170
C         52.40038        41.77018        -0.90326
C         51.23688        42.44256        -0.40951
C         52.46868        44.58183        -0.64920
C         51.26422        43.85409        -0.22184
C         52.56167        46.07611        -0.33769
C         51.41270        46.70570         0.33889
C         52.72629        48.77515         0.51457
C         51.51547        48.10877         0.62792
C         52.78599        50.21459         0.56305
C         51.52631        50.97271         0.54095
C         51.49970        52.34747         0.23115
C         55.14341        23.14544        -0.04299
C         53.95886        22.44680         0.19568
C         55.17583        24.54498        -0.24584
C         53.97734        25.31852         0.11118
C         54.94814        27.34845        -0.91694
C         53.84992        26.70771        -0.36488
C         54.74507        28.73807        -1.49777
C         53.71032        29.54686        -0.75572
C         54.88414        31.67686        -1.33388
C         53.70166        30.96190        -0.87356
C         54.87088        33.11045        -1.39490
C         53.64397        33.83271        -1.17736
C         54.83451        35.96631        -1.51061
C         53.62611        35.23665        -1.32468
C         54.83491        37.39841        -1.54805
C         53.54633        38.13148        -1.61019
C         54.81927        40.33230        -1.61050
C         53.52371        39.62663        -1.71354
C         54.84257        41.71665        -1.38300
C         53.63144        42.43589        -1.04177
C         54.94557        44.54807        -0.92895
C         53.72579        43.85286        -0.84472
C         55.02791        45.95413        -0.57220
C         53.89511        46.65504        -0.19210
C         55.24488        48.73734         0.17774
C         54.00536        47.96605         0.54295
C         55.22627        50.11133         0.27274
C         54.02221        50.83989         0.48721
C         57.57419        24.59249        -0.96234
C         56.31018        25.25384        -0.70302
C         57.40390        27.38348        -1.23649
C         56.22834        26.67354        -0.97278
C         57.37576        28.77132        -1.70443
C         56.04152        29.50208        -1.77174
C         57.29344        31.66593        -1.87490
C         56.07056        30.97710        -1.64210
C         57.28963        33.09757        -1.92394
C         56.06169        33.81367        -1.70865
C         57.25319        35.97826        -1.92257
C         56.06220        35.25610        -1.71845
C         57.27726        37.39578        -1.77908
C         56.03101        38.11109        -1.64756
C         57.25998        40.23840        -1.76465
C         56.04622        39.57266        -1.67386
C         57.25934        41.69954        -1.93439
C         56.07409        42.44175        -1.47842
C         57.43556        44.49990        -1.25801
C         56.15202        43.82060        -1.24759
C         57.50915        45.87246        -0.84605
C         56.33415        46.60418        -0.50145
C         57.71508        48.59714        -0.12688
C         56.43690        47.97378        -0.15133
C         58.72760        25.29347        -1.06774
C         59.88880        27.48021        -1.47577
C         58.72886        26.77940        -0.83445
C         59.83901        28.80181        -1.80210
C         58.61812        29.55123        -1.77799
C         59.71245        31.69713        -2.31553
C         58.54387        30.95213        -2.01861
C         59.67393        33.07777        -2.43855
C         58.49142        33.79558        -2.21066
C         59.73253        35.95866        -1.82455
C         58.50799        35.29183        -2.39596
C         59.71945        37.30054        -1.58046
C         58.52266        38.07277        -1.70522
C         59.77192        40.26249        -1.97880
C         58.55956        39.55205        -1.42321
C         59.80057        41.58512        -2.18315
C         58.57425        42.42496        -2.08236
C         59.88302        44.46144        -1.45053
C         58.62788        43.81757        -1.59233
C         59.96224        45.78220        -1.06706
C         58.78187        46.51686        -0.77904
C         58.85826        47.88731        -0.41413
O         41.10217        48.49431        -0.19708
O         30.85671        31.13658         1.18731
O         57.72910        42.20504        -3.26390
O         47.35836        32.28226        -0.88275
O         44.45014        52.54824        -0.62281
O         56.63737        28.99442        -2.99499
O         31.95810        25.75630        -1.93565
O         42.94462        23.53523         2.58874
O         45.47600        40.88762         2.58316
O         42.16322        33.63953         2.76278
O         36.94861        39.87522         2.77334
O         36.71896        28.94172         2.54961
O         32.59473        29.35402        -1.67284
O         41.97988        35.45740        -0.34712
O         39.48795        46.66107         2.82377
O         40.16598        41.04317         2.89682
O         43.63575        50.89199         2.68853
O         39.51129        44.02778         2.94478
O         52.22824        45.60323        -1.68372
O         31.22205        33.38612        -1.61078
O         40.62786        50.74045         2.60248
O         32.02521        22.84031         1.56044
O         37.43990        52.76152        -1.05843
O         48.60508        46.19507         2.42865
O         46.14808        31.37819         2.36725
O         53.52863        25.09714         1.48159
O         53.41453        38.80653        -2.93844
O         33.28983        49.47524        -1.93172
O         51.33445        35.43448        -2.20772
O         30.73460        46.52593         0.95304
O         49.39128        35.34153         2.01853
H         49.33097        36.27790         2.30537
O         49.19963        26.29257         2.26007
H         49.13908        27.11910         2.78255
O         58.56834        35.49966        -3.86054
H         58.51442        36.46707        -4.01562
O         34.89073        33.08078         2.62720
H         35.60244        32.59289         3.09458
O         47.67250        53.27833        -1.33203
H         46.74899        53.54279        -1.53396
O         39.09286        29.48135         3.32655
H         38.16539        29.48256         3.65995
O         54.12780        28.51858        -2.81167
H         54.87124        28.38402        -3.44581
O         39.23824        42.49947        -0.35700
H         38.43407        42.88741        -0.76320
O         42.83998        46.05685         3.35817
H         42.00306        45.66157         3.68717
O         29.98307        37.20754         1.90289
H         30.11894        38.10738         2.29499
O         27.34142        42.10383        -3.13989
H         27.36282        41.14036        -3.32362
O         31.19538        39.62979         2.22734
H         32.01120        39.40716         2.72637
O         43.75919        22.70381        -0.89221
H         44.45363        22.24715        -1.41340
O         50.51830        48.87206         2.64634
H         50.23915        47.99262         2.98503
O         58.68110        39.68998         0.04802
H         58.02217        39.08736         0.45428
O         54.17537        47.59211         1.96689
H         54.15896        48.42400         2.48714
O         48.74565        25.59213        -1.29767
H         48.69203        24.74573        -1.78794
O         40.28132        22.86684         3.00891
H         41.17815        23.15603         3.30855
O         45.51585        24.36382         2.84707
H         44.69066        23.94692         3.19638
O         33.23347        36.13218        -1.51530
H         33.04372        35.26549        -1.93615
O         29.70923        47.83397        -2.98710
H         29.80411        48.73168        -3.37336
O         51.84753        31.20570         1.72080
H         51.12951        30.82029         2.26765
O         34.57571        25.02680        -1.76869
H         33.76950        25.36315        -2.23662
O         25.31560        31.80344         0.78227
H         25.25576        30.91594         1.19318
O         36.02043        50.94375         1.85411
H         36.75277        51.10911         2.48453
O         41.56870        30.94661         3.32961
H         41.69496        31.89006         3.59119
O         51.63162        40.63654        -2.80189
H         51.93201        39.89422        -3.37945
O         25.76106        32.86240        -2.69104
H         25.80656        33.75325        -3.09663
O         35.96611        50.26422        -1.73776
H         35.21344        49.93679        -2.28375
O         58.87532        26.99255         0.62575
H         58.19833        26.43789         1.06927
H         22.21713        26.76076        -1.85829
H         22.15258        29.21291        -1.63991
H         22.13756        31.13546        -1.52152
H         22.10828        33.54518        -1.12542
H         22.13177        35.46139        -1.31202
H         22.16848        37.89031        -1.40522
H         22.20765        39.76048        -1.53786
H         22.29331        42.15784        -1.92063
H         22.42940        43.89962        -2.68107
H         22.44036        46.35254        -2.88575
H         25.56846        23.41077        -1.54456
H         23.46741        24.64706        -1.84477
H         25.63480        49.79710        -2.11918
H         23.59669        48.51725        -2.61753
H         27.07502        22.50852        -0.83561
H         27.22525        50.76076        -1.66781
H         29.09533        21.31125        -0.17617
H         29.29873        51.97430        -1.33236
H         32.88297        19.14781         0.15096
H         30.81184        20.31715        -0.23912
H         32.76128        54.05672         0.35630
H         30.72605        52.84986        -0.22869
H         34.44827        18.19654         0.58410
H         34.45236        55.13265         0.31749
H         36.53611        16.97627         0.70454
H         36.53159        56.36948         0.54620
H         40.32518        14.82797         0.66557
H         38.18367        16.02770         0.75880
H         40.40050        58.55472         0.62381
H         38.24108        57.36408         0.55463
H         42.77793        14.83461         0.52690
H         42.86871        58.52251         0.62037
H         44.90993        16.04787         0.40631
H         44.98925        57.28511         0.57632
H         48.61246        18.24758         0.06653
H         46.53846        17.01009         0.20105
H         48.69883        55.02179         0.96377
H         46.61160        56.24312         1.21027
H         50.22752        19.18374         0.10463
H         50.29226        54.09543        -0.12286
H         52.33618        20.37947         0.12878
H         52.43218        52.89228         0.03178
H         56.06384        22.56096        -0.17745
H         54.01613        21.34987         0.22491
H         56.14353        50.69361         0.10589
H         54.09011        51.93571         0.51748
H         57.59218        23.49712        -1.05462
H         57.79981        49.65411         0.15917
H         59.68389        24.77766        -1.23944
H         60.83393        26.92698        -1.58158
H         60.76158        29.29476        -2.14130
H         60.66695        31.17949        -2.47630
H         60.59159        33.61248        -2.71809
H         60.66528        35.38992        -1.70647
H         60.64105        37.80133        -1.24969
H         60.68884        39.67370        -2.13064
H         60.72549        42.05707        -2.54922
H         60.80392        43.90913        -1.68076
H         60.93803        46.28290        -0.99330
H         59.84266        48.37421        -0.36450
