         294
 CSIRO Nanostructure Databank - Neutral Graphene Oxide Data Set
C          1.36043         2.13080         0.35242
C          1.23673         3.40028        -0.14125
C          2.62437         1.55151         0.64445
C          2.45867         4.13376        -0.61434
C          1.19348         6.35389        -0.51541
C          1.17333         7.75031        -0.56464
C          2.39705         5.66057        -0.61331
C          2.34888         8.48223        -0.76206
C          1.12622        10.70915        -0.26748
C          1.10201        12.04404        -0.14822
C          2.30129         9.99799        -0.91048
C          2.27546        12.91159        -0.55369
C          1.10117        15.06884         0.20567
C          1.17492        16.43768         0.30076
C          2.30887        14.27058         0.17228
C          2.41736        17.11914         0.54357
C          2.53572        18.43841         0.09175
C          3.82008         2.29570         0.59883
C          3.73140         3.74877         0.15354
C          4.99004         1.71939         1.10671
C          4.87850         4.28905        -0.70597
C          3.60680         6.38794        -0.80311
C          3.57712         7.79333        -0.92928
C          4.85552         5.63647        -0.96081
C          4.81367         8.61540        -1.30537
C          3.59195        10.63100        -0.36300
C          3.56302        12.11840        -0.28193
C          4.90592         9.82456        -0.36904
C          4.83558        12.88414        -0.36133
C          3.48647        14.85947         0.56398
C          3.47349        16.24158         1.20236
C          4.79406        14.26962         0.18240
C          4.84157        16.86922         1.29856
C          3.66131        19.28823        -0.01206
C          4.88031        19.10425         0.66166
C          6.28160         2.37258         1.22402
C          6.05275         3.50496        -1.07709
C          7.42903         1.71475         0.81815
C          7.29499         4.09604        -1.03218
C          6.10266         6.32924        -1.37721
C          6.14476         7.82933        -1.38670
C          7.43877         5.58136        -1.26581
C          7.54225         8.52445        -1.18037
C          6.14617        10.65134        -0.70951
C          6.12391        12.12485        -0.51959
C          7.45311         9.92858        -0.57294
C          7.40212        12.83667        -0.19104
C          6.03584        14.74492         0.89758
C          6.03357        16.22218         1.16672
C          7.34118        14.23620         0.31026
C          7.31710        16.90292         1.28797
C          6.11132        19.71323         0.35172
C          7.33972        19.18721         0.83627
C          8.68292         2.45552         0.45234
C          8.55314         3.27400        -0.92123
C          9.88837         1.55409         0.30087
C          9.80259         4.16466        -1.00024
C          8.43632         6.20352        -0.26854
C          8.52821         7.68894        -0.39447
C          9.78029         5.58147        -0.65639
C          9.75756         8.27096         0.23078
C          8.54672        10.55151        -0.05786
C          8.51869        11.99719         0.43006
C          9.74491         9.79621         0.38817
C          9.87381        12.70357         0.42115
C          8.60285        14.83098         0.91574
C          8.51092        16.36471         0.88437
C          9.87951        14.22631         0.27768
C          9.74716        17.17451         0.75466
C          8.63550        19.50170         0.45024
C          9.78395        18.68601         0.77606
C         11.06765         2.05820        -0.20034
C         11.12248         3.45407        -0.71616
C         12.31934         1.38266        -0.10364
C         12.35119         4.22067        -0.42678
C         11.00161         6.37362        -1.02244
C         11.00257         7.80941        -0.55605
C         12.31235         5.72647        -0.33645
C         12.17472         8.50307        -0.48902
C         11.04282        10.51883         0.64782
C         11.04415        12.02306         0.50250
C         12.29895         9.59002         0.60594
C         12.35094        12.75026         0.53520
C         11.07215        14.93100         0.90604
C         11.06225        16.40710         0.84315
C         12.41500        14.30792         0.64039
C         12.21128        17.18158         1.48339
C         11.02787        19.27921         0.69955
C         12.28104        18.59515         0.91686
C         13.53624         2.09128        -0.17072
C         13.52830         3.56168        -0.25768
C         14.74506         1.42482         0.07884
C         14.83800         4.31087        -0.00567
C         13.54230         6.32211        -1.03672
C         13.44972         7.85364        -0.97575
C         14.85381         5.74076        -0.51685
C         14.73460         8.61084        -0.93592
C         13.68618        10.35159         0.62042
C         13.58387        11.89937         0.67703
C         14.69250        10.09953        -0.58375
C         14.87701        12.51852         1.17019
C         13.58843        14.90612         1.44402
C         13.59077        16.45612         1.56512
C         14.83140        14.02493         1.48289
C         14.84940        17.33247         1.48811
C         13.43689        19.28954         0.74077
C         14.80982        18.80895         1.11481
C         15.98174         2.14234         0.11965
C         15.97400         3.46851        -0.62918
C         17.03561         1.67346         0.84651
C         17.37121         4.19708        -0.76863
C         16.04657         6.39208        -0.69258
C         16.04894         7.86935        -0.94140
C         17.33582         5.70754        -0.50008
C         17.32105         8.62754        -0.69322
C         16.02192        10.73850        -0.17093
C         15.99327        12.03647         0.26955
C         17.31531        10.05095        -0.25617
C         17.26380        12.81714         0.11532
C         16.20440        14.57091         1.53310
C         16.19687        16.72689         1.39424
C         17.22624        14.17048         0.73859
C         17.17629        17.10772         0.49302
C         15.82818        19.13561         0.04351
C         16.94193        18.36934        -0.21258
C         18.22048         2.55056         1.10904
C         18.55465         3.39286        -0.13380
C         19.44794         1.74336         1.50213
C         19.74830         4.25331         0.24361
C         18.53685         6.38673        -0.46814
C         18.61467         7.86435        -0.57570
C         19.72996         5.70610         0.11848
C         19.89015         8.60028        -0.28059
C         18.43325        10.60309         0.32061
C         18.44175        12.05029         0.77695
C         19.66953         9.78493         0.67023
C         19.70634        12.75107         0.34484
C         18.55765        14.93501         0.80435
C         18.40740        16.35931         0.26968
C         19.66899        14.14245         0.12837
C         19.39203        16.90833        -0.53289
C         17.99132        18.85048        -1.07711
C         19.18772        18.18913        -1.17584
C         20.67967         2.24775         1.30576
C         20.82962         3.62248         0.82674
C         22.09872         4.29762         0.94455
C         21.04248         6.44792         0.40497
C         21.22991         7.83385        -0.21112
C         22.23095         5.61210         0.62620
C         22.32272         8.64657         0.44190
C         20.91871        10.68106         0.95577
C         20.89480        12.01513         0.21743
C         22.20972         9.91622         0.83978
C         22.02832        12.67065        -0.28935
C         20.79289        14.77576        -0.41842
C         20.75874        16.25739        -0.73629
C         21.95025        14.01450        -0.66520
C         21.25536        16.51801        -2.14467
C         20.32676        18.78740        -1.97587
C         21.04721        17.70117        -2.73052
O          6.07015         7.06941        -2.64653
O          7.55307        13.97344        -1.09736
O         19.43641         8.56581        -1.64934
O         10.14076        10.17191         1.75329
O          4.83052        14.04026        -1.27168
O         12.27144         8.72703         1.73365
O          4.83714        18.19744         1.74125
O         18.84159        14.84542         2.18750
O         10.55354        16.85769        -0.47082
O         10.67713         3.69900        -2.10819
O         13.17068        12.39933        -0.61958
O          7.25264        18.19103         1.81802
O         16.39803        15.72060         2.32490
O         16.83201         8.36807        -2.06759
O         13.97356        14.25201         2.65533
O         14.00806         8.39734        -2.21238
O         14.23974        16.97473         2.76587
O          6.10127        11.51094        -1.87358
O          3.45364        11.30162         0.93760
O         20.03626         6.36196         1.43333
O          8.99317         3.44422         1.46921
H          9.22733         2.96982         2.29425
O         21.67501        16.94139         0.17970
H         21.38280        16.73308         1.09338
O          2.19447        13.20821        -1.95971
H          3.04203        13.64095        -2.21390
O          2.21037        10.29371        -2.32134
H          3.03042         9.94710        -2.75541
O         20.85733        11.05561         2.36342
H         20.03641        11.59897         2.49939
O          6.30378         3.64478         1.69452
H          7.21633         4.03737         1.60190
O         11.74820        17.31987         2.85152
H         12.54350        17.43503         3.42246
O         12.70277        14.80924        -0.70139
H         11.99151        14.46651        -1.29786
O         21.71056         7.58199        -1.55524
H         20.99000         7.86434        -2.17200
O          5.97085        14.09458         2.21486
H          5.18114        14.43867         2.68839
O          3.71017         4.52929         1.37047
H          4.57927         4.40269         1.82009
O         12.37338         6.03623         1.05938
H         12.35913         7.03155         1.23842
O          8.57722         2.27861        -1.96472
H          9.38438         2.45824        -2.50958
O          8.08962        11.90534         1.82264
H          8.76548        11.34527         2.28183
O         17.68707         4.20407        -2.19627
H         17.01357         4.76156        -2.64420
O          9.99832        14.44275        -1.14898
H          9.95091        15.41958        -1.30993
O          8.01904         5.84564         1.07715
H          8.62255         6.35523         1.68001
O         21.24112        19.43206        -1.07146
H         21.61045        18.72228        -0.48937
O          8.11336         5.73463        -2.55046
H          7.49591         5.44295        -3.25520
O         17.54991        12.96387        -1.29495
H         17.27342        12.14272        -1.75492
O         15.22226        11.97717         2.47091
H         16.20330        11.91962         2.54697
O          5.88307         2.20653        -1.42192
H          6.75475         1.85766        -1.72939
O         18.97687         2.41608        -1.10936
H         19.07523         2.88571        -1.96702
O         15.50074         3.17312        -1.95963
H         16.20081         2.66066        -2.41791
O         15.20315        19.55983         2.30367
H         14.80968        19.10037         3.07757
O          8.13586         8.69191        -2.49390
H          8.18006         7.79075        -2.89729
O          2.65782         3.71465        -1.99783
H          1.86173         3.96748        -2.51025
O         14.36225        10.80164        -1.78075
H         13.95062        10.16287        -2.40948
O         15.03347         4.36618         1.42397
H         14.31596         4.92702         1.79507
O         13.54411         5.89304        -2.41279
H         13.88315         6.65399        -2.94248
O         18.32504        12.15502         2.22188
H         18.51054        13.12749         2.43827
O          3.06763        16.05525         2.60387
H          3.03425        16.94686         3.01349
O          9.88927         7.66894         1.54034
H         10.72105         8.09334         1.93506
O         11.11840         6.35361        -2.45187
H         11.17446         5.41348        -2.74613
O         14.41639         9.82837         1.72051
H         13.75023         9.33922         2.28150
O         17.87411         3.45864         2.18138
H         17.63483         2.93511         2.97305
O         19.35224         9.10123         1.90781
H         19.82893         9.58291         2.62922
O          8.70955        14.48660         2.31309
H          7.81009        14.26310         2.65346
O          4.60403         9.14931        -2.63287
H          4.91621         8.46646        -3.27089
O          5.10875         9.29733         0.95547
H          4.71751         9.94213         1.59016
H          0.45768         1.54048         0.56883
H          0.23538         3.80583        -0.34962
H          2.65601         0.52189         1.03169
H          0.24597         5.81428        -0.38013
H          0.20886         8.26553        -0.46761
H          0.25282        10.12838         0.06378
H          0.21809        12.53027         0.29211
H          0.14052        14.59796        -0.04432
H          0.28032        17.04149         0.08238
H          1.62536        18.83006        -0.39452
H          4.97845         0.62852         1.26623
H          3.57803        20.13914        -0.70414
H          7.31096         0.69936         0.41268
H          6.13737        20.47063        -0.44411
H          9.85970         0.53101         0.70588
H          8.81910        20.42544        -0.12008
H         12.33263         0.30992         0.14114
H         11.08199        20.36115         0.50167
H         14.72699         0.36080         0.36298
H         13.37292        20.33646         0.40347
H         16.94888         0.70565         1.36877
H         15.74417        20.12546        -0.42929
H         19.30466         0.75394         1.96360
H         17.84244        19.80570        -1.60275
H         21.57913         1.69120         1.60991
H         22.98455         3.69503         1.19553
H         23.22665         6.06966         0.54363
H         23.31810         8.17591         0.45413
H         23.09610        10.42861         1.24541
H         22.97864        12.12852        -0.39490
H         22.83968        14.50750        -1.08346
H         21.79664        15.71572        -2.66868
H         19.93695        19.56909        -2.67407
H         21.42411        17.90415        -3.74435
