         276
 CSIRO Nanostructure Databank - Neutral Graphene Oxide Data Set
C        -10.71634         0.58261        -1.64286
C         -9.72124         1.42668        -0.87197
C         -8.35923         0.71700        -0.76807
C         -7.10596         1.53927        -0.69573
C         -5.74165         0.86533        -0.35673
C         -5.19935         1.45523         1.00879
C         -3.92093         0.75708         1.49568
C         -2.64715         1.52176         1.74747
C         -1.33740         0.78051         1.97498
C          0.04047         1.48722         1.75879
C          0.86610         0.66385         0.71462
C          2.15952         1.36196         0.09012
C          3.46275         0.57937         0.23596
C          4.65891         1.32543        -0.20076
C          5.65549         0.55919        -1.00895
C          6.81540         1.21745        -1.66735
C          7.99822         0.43716        -2.17103
C          9.21456         1.20869        -2.53833
C         10.41521         0.41485        -2.77576
C         -9.65074         2.88172        -1.40462
C         -8.58227         3.70746        -0.70412
C         -7.31269         2.98832        -0.41057
C         -6.26130         3.68383         0.37757
C         -5.05675         2.92783         0.76803
C         -3.72480         3.61180         0.64435
C         -2.58367         2.99395         1.44016
C         -1.27774         3.70716         1.31006
C         -0.01902         2.92950         1.30275
C          1.15969         3.55986         1.04606
C          2.33102         2.92756         0.32597
C          3.72738         3.36822         0.87329
C          4.76480         2.68129        -0.04960
C          5.91618         3.39237        -0.69567
C          7.01995         2.66566        -1.41639
C          7.93854         3.39559        -2.40566
C          9.20028         2.57147        -2.59920
C         -8.58249         5.07270        -0.73115
C         -7.44362         5.89112        -0.31022
C         -6.27978         5.18192         0.30586
C         -4.91785         5.80500         0.07016
C         -3.85482         5.14084         0.98029
C         -2.49360         5.84939         0.89152
C         -1.26139         5.02693         0.53091
C         -0.01914         5.81624         0.90585
C          1.22631         5.03610         1.17891
C          2.57178         5.71618         1.19979
C          3.80399         4.91630         0.91336
C          4.97713         5.63267         0.89595
C          5.78229         4.74217        -1.33813
C          7.06752         5.53155        -1.41427
C          8.16051         4.80920        -1.91023
C         -7.40895         7.25591        -0.34065
C         -6.28183         8.02141         0.35089
C         -4.94545         7.32800         0.13217
C         -3.69377         8.07389         0.39858
C         -2.43257         7.32380         0.68395
C         -1.20171         7.97580         0.08215
C          0.08903         7.24253         0.45367
C          1.35531         7.96445         0.74182
C          2.58996         7.22707         1.22703
C          3.85787         7.95607         0.87450
C          5.05228         7.10402         0.59569
C          5.89933         7.65789        -0.59876
C          7.12497         6.85663        -0.95217
C         -6.11732         9.48835        -0.02731
C         -4.97209        10.16867         0.16897
C         -3.72631         9.53773         0.78109
C         -2.39124        10.18642         0.44653
C         -1.17739         9.47725         0.36652
C          0.05930        10.13620         0.45525
C          1.35469         9.47552         0.88281
C          2.62492        10.03747         0.27166
C          3.78530         9.33186         0.29136
C          5.08874         9.91350        -0.05719
C          6.14617         9.13068        -0.35279
C        -10.54195        -0.71553        -1.98464
C         -9.30380        -1.44612        -1.77552
C         -8.19619        -0.72626        -1.12089
C         -6.81244        -1.28818        -1.20261
C         -5.78906        -0.62568        -0.35088
C         -4.78583        -1.37162         0.29281
C         -3.98655        -0.79508         1.48852
C         -2.61089        -1.49809         1.59370
C         -1.37976        -0.72810         1.98883
C         -0.04312        -1.43269         1.86095
C          1.14677        -0.72311         1.29609
C          2.23522        -1.57950         0.67950
C          3.46911        -0.78925         0.31872
C          4.60604        -1.62153        -0.17387
C          5.74234        -0.93246        -0.84015
C          7.14815        -1.49877        -0.70918
C          8.12056        -0.99817        -1.76692
C          9.44497        -1.66831        -1.83946
C         10.50956        -0.91280        -2.48755
C         -9.11544        -2.73458        -2.20494
C         -7.85774        -3.45052        -2.13286
C         -6.64039        -2.70931        -1.63158
C         -5.40668        -3.42472        -1.06359
C         -4.70059        -2.74738         0.09624
C         -3.83654        -3.60856         1.01349
C         -2.56403        -2.84828         1.39513
C         -1.34654        -3.65706         1.72204
C         -0.05516        -2.92986         1.91909
C          1.27857        -3.62680         1.83484
C          2.52084        -2.85305         1.50886
C          3.92236        -3.50517         1.45386
C          4.70522        -3.11122         0.19789
C          6.15406        -3.61131         0.26343
C          7.19942        -2.98735        -0.54924
C          8.59283        -3.57471        -0.41855
C          9.60927        -2.92074        -1.33321
C         -7.86183        -4.76741        -2.54869
C         -6.66895        -5.59479        -2.67334
C         -5.74026        -4.81454        -0.49409
C         -4.50607        -5.63108        -0.32046
C         -3.55181        -4.99435         0.42255
C         -2.32979        -5.70269         0.75605
C         -1.29435        -5.10521         1.40455
C         -0.00152        -5.86864         1.48829
C          1.27233        -5.09282         1.55671
C          2.58204        -5.81890         1.61673
C          3.87472        -5.05376         1.54075
C          5.12838        -5.81813         1.11096
C          6.34097        -5.05943         0.64790
C          7.46208        -5.78964        -0.02034
C          8.52002        -5.08376        -0.51873
C         -6.62828        -6.93373        -2.14186
C         -5.57140        -7.57396        -1.50010
C         -4.24785        -6.87622        -1.18055
C         -3.09146        -7.81574        -0.58979
C         -2.35421        -7.18331         0.60522
C         -1.28608        -8.01958         1.22656
C         -0.00050        -7.37634         1.83511
C          1.29874        -8.09137         1.31913
C          2.46769        -7.16919         0.94302
C          3.69856        -7.85618         0.46202
C          5.04153        -7.24545         0.69657
C          6.21872        -7.93399         0.09891
C          7.36010        -7.23616        -0.18079
C         -5.79546        -8.92909        -1.08678
C         -4.82520        -9.71345        -0.52466
C         -3.52117        -9.21546        -0.19103
C         -2.59151       -10.01915         0.39830
C         -1.28525        -9.52553         0.96414
C         -0.02132       -10.02635         0.31654
C          1.12156        -9.33142         0.47440
C          2.41133        -9.88719         1.03333
C          3.61711        -9.35982         0.21750
C          4.95817       -10.03779         0.36892
C          6.12369        -9.38893         0.13732
O          0.99311        -0.85867         2.71972
O          4.76895         5.03687        -1.96432
O          2.84593        -7.10568        -0.47048
O         -2.27292         6.77106         2.00681
O         -1.41585         0.04767         3.22723
O          0.38029         5.55240         2.26519
O         -6.86879         2.49180        -1.77493
O         -4.81190        -1.17165         2.56455
O         -6.29648        -1.60733        -2.55747
O         -2.54441        -7.75948         1.94805
O         -6.68180         4.52946         1.53047
O          2.10052        -3.05328         2.89303
O          1.85417         1.17225        -1.37582
O          2.08952        -9.04922         2.24079
O          5.39386        -6.88312         2.07718
O          7.59442        -0.64395        -3.07367
O          4.99051         7.88905         1.81864
O         -8.43551        -0.30450         0.27254
O          0.68822        -5.45767         0.24920
O          7.21396         3.10835        -0.05298
O          6.69469        -4.01939         1.60443
O         -3.59678         1.26181         2.81973
O         -4.16962         7.88721        -0.97757
O          3.36886        -5.60194         2.80236
O          4.74743        -1.58173        -1.67345
O         -0.81728        -3.39914         3.07321
O          5.59988         0.94886        -2.43255
O          1.07349         7.48205        -0.62063
O          2.65391         6.51258         2.46797
O         -6.84559        -5.09066        -0.05896
O         -2.06878         3.78779         2.54364
O         -2.11629        -7.98508        -1.58800
O         -0.03455        -7.46909         3.25678
H          0.12170        -8.40619         3.50281
O         -6.54456         7.95047         1.77313
H         -7.45462         8.26852         1.94279
O         -4.65616         5.47595        -1.32048
H         -4.20600         6.26660        -1.71770
O          1.42402         9.73222         2.31879
H          1.65696        10.67352         2.45767
O          1.67586        -2.08739        -0.57252
H          2.34579        -2.68780        -0.98214
O         -1.23019         4.78866        -0.88844
H         -1.19155         5.66430        -1.34039
O          4.62564        -2.97861         2.57795
H          4.08400        -3.17422         3.37559
O         -0.10086         0.44450        -0.33942
H          0.32093        -0.11022        -1.03363
O         -4.39953        -3.52826        -2.10053
H         -4.44602        -2.68914        -2.61268
O          5.00258         7.67351        -1.74440
H          4.79913         6.74827        -2.03643
O          4.05280        -3.84872        -0.86926
H          4.35419        -3.44473        -1.71980
O          9.09157        -3.21647         0.93243
H          8.43487        -3.60313         1.57124
O          0.71606         1.57223         3.01140
H          0.28006         0.94791         3.63929
O          7.27663         3.46326        -3.69769
H          6.41835         3.92655        -3.58986
O         -9.36782         2.87761        -2.80849
H         -8.39081         2.78055        -2.91150
O         -4.76176         1.25781        -1.33232
H         -5.03940         0.91950        -2.20947
O         -5.69402        -5.08016        -3.35265
H         -4.82956        -5.60300        -3.24839
O          2.26245         3.60459        -0.94734
H          1.60909         3.13954        -1.51602
O          7.62659        -0.92671         0.55616
H          8.32778        -1.53951         0.90734
O         -1.35365         7.79717        -1.35184
H         -0.48034         8.01884        -1.75276
O         -3.34380         3.35044        -0.72634
H         -3.91037         3.89861        -1.32690
O        -10.24094         1.55232         0.46948
H         -9.99241         0.73437         0.95877
O         -4.61508        -3.80943         2.21426
H         -4.76343        -2.89269         2.60669
O         -4.33795         5.26396         2.31204
H         -3.59987         5.04356         2.92648
O          6.16761         5.05246         1.22334
H          6.89719         5.70146         1.15658
O          3.88187         2.81567         2.18371
H          4.64353         3.24831         2.62171
O          3.00573         1.48213        -2.19422
H          3.36719         0.59469        -2.44603
O         -6.21809         1.18238         1.97864
H         -5.93614         0.35035         2.45649
O         -3.71084        -6.39218        -2.43240
H         -2.83373        -6.92416        -2.51663
O         -1.22640       -10.12175         2.30474
H         -1.92599        -9.67203         2.83095
O         -3.83969         9.61593         2.22469
H         -3.89480        10.55823         2.48474
O          3.26613        -9.58264        -1.17266
H          2.78114        -8.77748        -1.47429
H         11.45950        -1.43604        -2.67555
H         11.28909         0.93532        -3.19606
H         10.12820         3.10758        -2.85409
H          9.13223         5.30525        -2.05604
H          8.09655         7.37579        -0.99493
H          7.13437         9.56344        -0.56781
H          5.19520        11.00812        -0.00905
H          2.61957        11.07522        -0.09749
H          0.03537        11.23327         0.58062
H         -2.32750        11.27906         0.59483
H         -4.93144        11.24018        -0.08750
H         -6.99358        10.01595        -0.43930
H         -8.27061         7.81948        -0.73457
H         -9.47854         5.59990        -1.09518
H        -10.65725         3.34788        -1.26255
H        -11.68904         1.05556        -1.84764
H        -11.35978        -1.25569        -2.48636
H         -9.95763        -3.26014        -2.68121
H         -8.83566        -5.26089        -2.69215
H         -7.61086        -7.42992        -2.07682
H         -6.77925        -9.36990        -1.30868
H         -5.04859       -10.76941        -0.30491
H         -2.85427       -11.06316         0.63890
H          0.02357       -11.08803         0.02845
H          2.44654       -10.97332         1.27453
H          4.95702       -11.13529         0.45428
H          7.06257        -9.96110         0.07599
H          8.24672        -7.76782        -0.55866
H          9.34140        -5.62376        -1.01517
H         10.59541        -3.40671        -1.40514
