         349
 CSIRO Nanostructure Databank - Neutral Graphene Oxide Data Set
C          1.31886         3.71582         2.19187
C          0.10541         4.44303         2.19238
C          1.34525         6.60511         1.99691
C          0.07304         5.80202         2.01462
C          1.27378         7.93211         1.25139
C          0.06930         8.55885         0.91314
C          1.25380        10.53653         0.11116
C          0.06890         9.82518         0.31517
C          1.29494        11.85849        -0.65169
C         -0.01316        12.60988        -0.74999
C          1.18487        14.75587        -0.84402
C         -0.03037        13.95829        -0.84856
C          1.05769        16.22798        -1.14535
C          0.12611        16.88183        -0.13742
C          1.15597        19.09744        -0.53507
C          0.17786        18.19382         0.12992
C          1.15681        20.57982        -0.15265
C          0.64981        20.86840         1.24650
C          1.66433        23.08245         1.03744
C          0.87066        22.08889         1.76109
C          1.44114        25.49731         0.77957
C          0.31417        26.30738         1.05115
C          1.32243        28.13021        -0.17029
C          0.21453        27.57692         0.51049
C          1.34302        29.52521        -0.52421
C          3.75189         3.61990         1.87875
C          2.54714         4.33449         1.84551
C          3.70373         6.40869         1.20685
C          2.55002         5.77219         1.57856
C          3.75595         7.89791         1.22486
C          2.47953         8.62196         1.01503
C          3.74375        10.66917         0.30788
C          2.48785         9.93984         0.48868
C          3.71251        12.06316        -0.04540
C          2.37471        12.75289        -0.03890
C          3.64499        14.87887        -0.73991
C          2.39797        14.15979        -0.60084
C          3.58640        16.30946        -1.02492
C          2.38849        16.96193        -1.15046
C          3.58644        19.22894        -1.63466
C          2.32117        18.44665        -1.25101
C          3.64409        20.63731        -1.04942
C          2.52958        21.24688        -0.27638
C          3.54926        23.56077        -0.63899
C          2.53732        22.71095         0.05607
C          3.53025        25.06144        -0.67121
C          2.47867        25.93628        -0.05440
C          3.69304        27.97014        -0.80527
C          2.46379        27.31902        -0.42434
C          3.73933        29.39818        -0.92399
C          2.50523        30.13951        -0.89007
C          6.28182         3.55681         1.44851
C          4.96060         4.14396         1.26565
C          6.20148         6.32835         0.53970
C          4.89638         5.63220         0.80739
C          6.22422         7.82459         0.43748
C          5.01162         8.59507         0.84107
C          6.22006        10.67190         0.19077
C          4.98142        10.01134         0.42218
C          6.19353        12.17305         0.18216
C          4.87374        12.79466        -0.21201
C          6.13756        14.88812        -0.70163
C          4.86091        14.19359        -0.57519
C          6.14175        16.32872        -1.04205
C          4.85882        17.06207        -1.21925
C          6.06966        19.28142        -1.16331
C          4.86726        18.54190        -1.20050
C          6.09866        20.68294        -1.35414
C          4.81376        21.47799        -1.56248
C          6.03715        23.56824        -0.87770
C          4.85120        22.87287        -0.94895
C          6.06986        24.99060        -0.67469
C          4.84105        25.75164        -1.11331
C          6.13240        27.88447        -0.76381
C          4.89361        27.22891        -0.82788
C          6.18601        29.32302        -0.84288
C          4.97658        30.04593        -1.00989
C          8.73168         3.55098         1.18473
C          7.49089         4.24745         1.16413
C          8.70983         6.32703         0.42642
C          7.46930         5.62947         0.78526
C          8.73619         7.83443         0.16766
C          7.52156         8.57655         0.66668
C          8.69130        10.64558        -0.15634
C          7.46599        10.00960         0.17791
C          8.64172        12.03352        -0.66549
C          7.34866        12.76361        -0.57468
C          8.64594        14.94319        -0.43081
C          7.33819        14.23652        -0.63678
C          8.58596        16.39637        -0.81893
C          7.40113        17.07526        -0.85178
C          8.62515        19.15788        -1.38266
C          7.36076        18.59566        -0.71642
C          8.67636        20.69244        -1.33257
C          7.37191        21.43224        -1.44958
C          8.44840        23.42880        -0.27131
C          7.37659        22.95727        -1.26514
C          8.49656        24.93956        -0.33395
C          7.31568        25.67123        -0.52155
C          8.51734        27.83158        -0.27477
C          7.34702        27.13764        -0.54547
C          8.60680        29.27356        -0.40368
C          7.42670        29.98513        -0.75030
C         11.28253         3.58094         1.00740
C         10.01050         4.24044         1.22348
C         11.24570         6.44356         0.46919
C         10.00420         5.77367         0.87139
C         11.22605         7.83924         0.12695
C         10.01292         8.57272         0.12788
C         11.13401        10.66369        -0.63407
C          9.94783         9.97365        -0.16478
C         11.10565        12.02450        -0.98181
C          9.90008        12.79220        -0.86001
C         11.09060        14.94850        -1.04914
C          9.89165        14.19847        -0.88561
C         11.11037        16.35264        -0.87766
C          9.86075        17.09847        -0.77577
C         11.03611        19.18324        -0.28658
C          9.84988        18.46890        -0.82032
C         11.07094        20.67389        -0.50759
C          9.86710        21.40160        -0.76115
C         10.98502        23.45713         0.01277
C          9.80467        22.76268        -0.45597
C         10.94364        24.81521         0.30599
C          9.78300        25.60621        -0.14768
C         10.87370        27.80197         0.69361
C          9.78214        27.10664        -0.05689
C         10.95370        29.33676         0.57055
C          9.83573        29.92310        -0.24623
C         13.69204         3.59706         0.62909
C         12.46157         4.29825         0.77420
C         13.68480         6.42572         0.28216
C         12.45291         5.73610         0.53928
C         13.68271         7.83025        -0.06571
C         12.46182         8.50805        -0.14823
C         13.67587        10.54317        -1.13492
C         12.38332         9.85979        -0.76288
C         13.62641        12.00479        -1.53724
C         12.30666        12.72784        -1.52095
C         13.61899        14.96757        -1.60641
C         12.24183        14.25181        -1.76131
C         13.60270        16.44665        -1.31752
C         12.32474        17.11254        -0.95236
C         13.50713        19.20536        -0.34315
C         12.32832        18.47696        -0.60626
C         13.46745        20.56755         0.04717
C         12.24429        21.32494        -0.10391
C         13.43532        23.39398         0.48894
C         12.24519        22.73727         0.13980
C         13.42372        24.81351         0.81312
C         12.07554        25.45067         1.08767
C         13.37907        27.70063         1.03194
C         12.08887        26.99617         1.04156
C         13.47100        29.06408         0.61980
C         12.33893        29.79496         0.22292
C         16.08194         3.55074         0.02465
C         14.89505         4.27393         0.40920
C         16.15881         6.43262         0.29628
C         14.88839         5.70474         0.32357
C         16.15013         7.85647        -0.07342
C         14.95793         8.50562        -0.32269
C         16.15381        10.56807        -0.99874
C         14.97517         9.91062        -0.76742
C         16.19530        11.98643        -1.45008
C         14.92441        12.76957        -1.63090
C         16.06513        14.92666        -0.98916
C         14.90725        14.24002        -1.38172
C         16.06025        16.31015        -0.59146
C         14.88653        17.12511        -0.92667
C         15.93762        19.10529         0.32510
C         14.82059        18.55264        -0.45492
C         15.86834        20.47680         0.69005
C         14.66095        21.22527         0.45847
C         15.85919        23.29519         1.00559
C         14.66232        22.64229         0.64240
C         15.91513        24.79625         0.85914
C         14.58026        25.47559         1.12315
C         15.93456        27.66897         1.32765
C         14.58350        26.94008         1.37407
C         15.95359        29.04575         0.79341
C         14.76662        29.69306         0.50026
C         18.21343         3.58334        -1.20405
C         17.25837         4.19216        -0.29768
C         18.65418         6.33309        -0.36052
C         17.42598         5.60969         0.07219
C         18.68287         7.77064        -0.31788
C         17.46486         8.61465        -0.06539
C         18.71192        10.61537        -0.84897
C         17.45579         9.78994        -1.06037
C         18.69269        12.01894        -0.83191
C         17.47088        12.76008        -1.23071
C         18.64699        15.03400        -0.60864
C         17.40103        14.25501        -1.05549
C         18.32617        16.17315         0.33537
C         17.15563        16.91724         0.11000
C         18.18697        18.95012         1.20724
C         17.07636        18.31394         0.57862
C         18.18262        20.34307         1.47123
C         17.02615        21.12623         1.21297
C         18.25645        23.25853         1.60230
C         17.03151        22.56705         1.33980
C         18.34423        24.66351         1.48253
C         17.06122        25.43287         1.66309
C         18.38097        27.48514         0.98890
C         17.17435        26.88387         1.28092
C         18.41196        28.90150         0.64110
C         17.22835        29.62755         0.52152
C         19.22973         4.27161        -1.78874
C         20.41863         6.52318        -2.19604
C         19.61366         5.62114        -1.34327
C         20.57847         7.82435        -1.89092
C         20.00919         8.42412        -0.60322
C         21.11207        10.65565        -0.44095
C         19.92824         9.92980        -0.64775
C         21.08188        12.03452        -0.32865
C         19.86632        12.75149        -0.48010
C         20.82253        14.74196         0.60893
C         19.78537        14.14773        -0.14593
C         20.66228        15.94598         1.25017
C         19.37995        16.64444         1.22190
C         20.59575        18.84494         1.95255
C         19.33132        18.14854         1.66393
C         20.63234        20.18489         2.07069
C         19.39102        20.97864         2.03657
C         20.73707        23.23094         1.92564
C         19.45717        22.52382         2.02322
C         20.78379        24.53735         1.54370
C         19.58365        25.31964         1.37722
C         20.82410        27.41546         0.84174
C         19.63024        26.73897         1.07485
C         20.84346        28.79127         0.50196
C         19.67943        29.51760         0.39471
O         19.91473         5.67526         0.09101
O         19.21987        21.75241         3.26198
O          4.66426         4.58786        -0.13647
O          6.10819         7.06438        -0.77575
O         15.21223        18.23710        -1.84661
O         15.67378        12.25528        -2.79442
O         17.69551        13.66585        -2.36878
O          8.65047         6.89561        -0.93171
O          8.22997        21.17744        -2.64580
O         10.24424        26.47938        -1.30274
O         10.01329         5.32786         2.23928
O         12.94674         9.75352        -2.12770
O         18.96473        17.07585         2.56743
O          3.61961        20.52821         0.41859
O         15.22211        27.45290         2.61333
O          4.66779         8.43127         2.27585
O          2.97438        24.28385        -1.80808
O          7.69801        12.13621        -1.83732
O         12.82973        12.12285        -2.75378
O         13.72336        15.95689        -2.69107
O          1.15025        18.93495        -2.00167
O         17.04130         6.02479         1.41877
O         11.06686        27.43334         2.09514
O          1.49080        24.34534         1.56388
O          5.59329        16.54052        -2.41852
O          8.59827        18.73318        -2.76070
H          8.35991        19.52255        -3.30524
O          1.57941         6.98175         3.39897
H          1.64388         6.15250         3.91841
O         11.84347        14.40672        -3.14009
H         12.36399        13.75907        -3.66914
O          4.91067        25.68894        -2.56974
H          4.29414        24.96367        -2.84550
O         10.72359        29.91131         1.90631
H         10.99049        29.21232         2.55300
O         17.59921         9.19416         1.26760
H         17.68788         8.44856         1.90099
O         10.88136        19.06427         1.19185
H          9.92747        19.18776         1.39555
O         20.96117         8.10149         0.45028
H         20.91437         7.12049         0.57722
O          2.01199        12.89798         1.37145
H          2.68678        13.46467         1.79989
O          7.99365        23.02896         1.05751
H          8.69746        23.25466         1.70212
O          3.59501        19.29777        -3.08796
H          3.87374        18.42073        -3.42998
O          8.81029        14.97329         1.04146
H          8.01745        15.40430         1.42615
O          0.25229        21.24640        -1.06327
H          0.35221        20.81152        -1.94031
O          7.72784        23.56429        -2.52055
H          7.12852        23.21297        -3.21178
O         19.17560        15.69358        -1.80944
H         18.96078        15.10029        -2.56784
O         11.80968        25.06126         2.47404
H         11.27569        25.78551         2.87778
O          7.48517        18.88766         0.71254
H          6.58719        18.90087         1.10660
O          6.40687        12.58695         1.58269
H          5.73238        12.13088         2.13004
O          0.44189        16.35493        -2.45225
H          0.42692        17.32053        -2.66005
O          4.66131        21.72781        -2.98497
H          4.37642        20.87668        -3.40423
O         16.76122        25.32129         3.07542
H         16.12887        26.04972         3.30151
O         17.50661         9.20121        -2.38623
H         17.26436         9.89338        -3.03857
O         16.22313        25.06406        -0.54669
H         15.58459        24.56444        -1.09875
O          1.71072        11.54025        -2.00502
H          0.98836        11.04513        -2.44330
O          7.70692         8.63915         2.11296
H          6.87268         8.96611         2.51680
H          1.30311         2.63596         2.39471
H         -0.83609         3.89323         2.33909
H         -0.88848         6.32914         2.08578
H         -0.89290         8.06147         1.09431
H         -0.89617        10.26597         0.02856
H         -0.94996        12.04806        -0.88547
H         -0.98347        14.48049        -1.01940
H         -0.64373        16.25961         0.34386
H         -0.55518        18.62913         0.82351
H          0.04648        20.13848         1.80209
H          0.45678        22.38256         2.73604
H         -0.48615        25.90064         1.68285
H         -0.67654        28.19331         0.69441
H          0.41334        30.10393        -0.42299
H          3.77305         2.61694         2.32950
H          2.52954        31.22024        -1.09063
H          6.34335         2.55668         1.90051
H          5.01305        31.14091        -1.10914
H          8.72389         2.45146         1.18177
H          7.46744        31.07955        -0.85189
H         11.30428         2.48241         0.95456
H          9.88710        31.00482        -0.44492
H         13.69093         2.49946         0.69692
H         12.47194        30.83883        -0.09891
H         15.97571         2.47819        -0.20002
H         14.80208        30.71868         0.10352
H         18.00107         2.55508        -1.53331
H         17.26966        30.67686         0.19296
H         19.81214         3.80926        -2.59956
H         20.84550         6.10894        -3.12252
H         21.18657         8.47243        -2.53989
H         22.05672        10.11137        -0.31040
H         22.02037        12.56938        -0.13540
H         21.75286        14.18718         0.79168
H         21.44549        16.29879         1.93301
H         21.51373        18.26072         2.09945
H         21.57341        20.68455         2.33875
H         21.66709        22.69992         2.17022
H         21.76354        25.02717         1.45884
H         21.78499        26.88781         0.90789
H         21.81193        29.27757         0.31891
H         19.70920        30.58374         0.12807
