         490
 CSIRO Nanostructure Databank - Neutral Graphene Oxide Data Set
C         38.75517        50.22026         3.59731
C         37.71080        50.91488         4.18987
C         38.54847        52.98064         3.25641
C         37.60411        52.30309         4.01274
C         40.99286        48.77146         2.33866
C         40.78800        50.15707         2.13785
C         39.72665        50.88759         2.81671
C         40.65351        53.00951         1.90143
C         39.62900        52.29717         2.64851
C         40.68507        54.41733         1.85255
C         42.74632        48.65579         0.65131
C         42.00717        48.06870         1.65385
C         42.55254        50.11236         0.32532
C         41.66604        50.85679         1.28024
C         42.76790        52.97413         0.58380
C         41.67945        52.27795         1.22381
C         42.80317        54.37568         0.64355
C         41.74306        55.08104         1.24831
C         45.04520        45.80313         0.22608
C         43.87206        46.44101         0.12787
C         45.04259        48.66912        -0.07276
C         43.74631        47.90503        -0.20048
C         45.01412        50.06393        -0.24974
C         43.85030        50.83878         0.04154
C         45.09807        52.91685        -0.44053
C         43.90571        52.23097         0.03622
C         45.12461        54.35777        -0.42528
C         44.06058        55.13932         0.31313
C         44.86727        57.16881        -0.81560
C         43.81256        56.47590        -0.34429
C         47.54383        44.34506        -0.80191
C         47.57254        45.75958        -0.36094
C         46.36055        46.48405         0.16008
C         47.40900        48.58241        -0.82711
C         46.38556        48.01969         0.17101
C         47.14513        49.85031        -1.32660
C         46.16192        50.74399        -0.79883
C         47.41192        52.89484        -1.46477
C         46.20424        52.16192        -0.92864
C         47.39396        54.39864        -1.42900
C         46.20484        55.09337        -0.89389
C         47.34983        57.30273        -0.99196
C         46.18223        56.54566        -0.88824
C         47.38222        58.72343        -0.81134
C         49.97969        44.37707        -1.10385
C         48.68700        43.70712        -1.14413
C         49.98093        45.80521        -0.98076
C         48.75535        46.54190        -0.81302
C         49.95133        48.62919        -1.52824
C         48.66311        47.91865        -1.03828
C         50.03290        50.14482        -1.35643
C         48.96408        50.93037        -1.74664
C         49.94802        52.99870        -1.05019
C         48.79112        52.29330        -1.42308
C         49.94594        54.45168        -0.99482
C         48.70174        55.15372        -1.38981
C         49.88749        57.34298        -0.74725
C         48.66181        56.64207        -1.18703
C         49.83717        58.73372        -0.53581
C         48.55851        59.40084        -0.62245
C         52.42743        41.55551        -1.23726
C         51.28128        42.24995        -1.40385
C         52.44878        44.38619        -0.97542
C         51.20358        43.68084        -1.15398
C         52.42974        45.82129        -0.92821
C         51.20882        46.50459        -0.98541
C         52.46782        48.70062        -1.10900
C         51.13891        47.99964        -0.77847
C         52.40695        50.14357        -0.65220
C         51.19066        50.83866        -0.88111
C         52.34267        52.96628        -0.41385
C         51.15965        52.26903        -0.79428
C         52.42131        54.44878        -0.69716
C         51.09533        55.16759        -0.72707
C         52.30719        57.31987        -0.35081
C         51.10893        56.61907        -0.63354
C         52.29774        58.74276        -0.20418
C         51.05253        59.45028        -0.26385
C         52.23208        61.54001         0.14141
C         51.05736        60.85876        -0.06518
C         55.04333        40.12440        -0.88486
C         54.94570        41.48811        -0.91555
C         53.63784        42.19058        -0.60076
C         54.90103        44.39155        -0.69409
C         53.67040        43.68433        -0.84003
C         54.88632        45.80726        -0.48999
C         53.65068        46.54950        -0.62531
C         54.75313        48.66222         0.04224
C         53.61596        47.93293        -0.50924
C         54.78265        50.14574         0.06260
C         53.53281        50.83592        -0.18685
C         54.68097        52.95291         0.48303
C         53.48049        52.25445        -0.03330
C         54.67722        54.44435         0.51748
C         53.50207        55.18765         0.03101
C         54.70966        57.30086         0.31243
C         53.53671        56.59785        -0.02495
C         54.85158        58.75459        -0.02197
C         53.51344        59.45711         0.02366
C         54.72176        61.58599         0.22996
C         53.47923        60.85087         0.18049
C         54.81105        62.81805        -0.41483
C         57.49856        40.11446        -0.84426
C         56.30825        39.44193        -0.83544
C         57.50943        41.55945        -1.12484
C         56.15991        42.29087        -1.12429
C         57.37825        44.41423        -0.55945
C         56.16070        43.72598        -0.77087
C         57.35087        45.80986        -0.24828
C         56.09715        46.47911        -0.25329
C         57.31369        48.65723         0.15243
C         56.04631        47.89117         0.13336
C         57.25410        50.11102         0.43036
C         55.94614        50.82137         0.39656
C         57.17534        52.94149         0.81071
C         55.98653        52.25208         0.53401
C         57.19904        54.40151         0.88069
C         56.00044        55.15382         0.33394
C         57.23276        57.29874         0.71460
C         55.87160        56.57821         0.93127
C         57.16173        58.80171         0.97481
C         55.98972        59.46797         0.69412
C         57.22284        61.60241         0.45447
C         55.92615        60.98548         0.89773
C         57.26326        62.78506        -0.28285
C         56.03928        63.42434        -0.65120
C         60.02353        37.37058        -1.07648
C         58.92916        38.00484        -0.59422
C         59.94921        40.23619        -1.08302
C         58.82474        39.50091        -0.39635
C         59.98669        41.69022        -0.98104
C         58.73463        42.34943        -0.85079
C         59.86731        44.43976        -0.28534
C         58.66065        43.72985        -0.60092
C         59.80665        45.79571         0.15497
C         58.55370        46.50529         0.13930
C         59.67008        48.59343         0.89810
C         58.53610        47.88957         0.44228
C         59.67138        49.98472         1.19073
C         58.34462        50.71561         1.28092
C         59.54821        52.86341         1.47077
C         58.40796        52.21440         1.09946
C         59.50462        54.31881         1.69852
C         58.31903        55.08685         1.28160
C         59.67350        57.30292         1.56457
C         58.32101        56.59069         1.56559
C         59.63038        58.77461         1.42266
C         58.43204        59.45935         1.15035
C         59.71272        61.44260         0.24455
C         58.48328        60.98270         0.99233
C         59.74619        62.65244        -0.49296
C         58.53361        63.37939        -0.70146
C         59.80766        65.13719        -1.80538
C         58.60071        64.62705        -1.34121
C         62.58090        36.12397        -1.82925
C         62.45517        37.55724        -1.77064
C         61.18350        38.10711        -1.57061
C         62.71227        40.62490        -1.67459
C         60.91072        39.51664        -1.73783
C         62.50198        41.82378        -0.96155
C         61.19597        42.43290        -0.83335
C         62.32350        44.46368         0.07968
C         61.13405        43.78332        -0.35266
C         62.24159        45.80427         0.55607
C         60.98047        46.44393         0.60724
C         62.10777        48.51111         1.65157
C         60.85992        47.78787         1.19835
C         62.09593        49.98754         1.67174
C         60.85454        50.66485         1.55550
C         62.04730        52.90769         1.72772
C         60.76825        52.11945         1.99464
C         62.06825        54.28673         1.79502
C         60.78186        55.04395         1.94461
C         62.06209        57.04610         2.31668
C         60.78996        56.53294         1.87412
C         62.09660        59.14086         1.80785
C         60.85739        59.56367         1.29938
C         62.16740        61.25126         0.03593
C         60.90413        60.74759         0.49364
C         62.20960        62.43653        -0.74953
C         60.99123        63.15460        -0.99847
C         62.25511        64.92463        -2.20216
C         61.01541        64.41434        -1.67741
C         62.35397        66.17979        -2.82082
C         65.03138        36.17247        -1.89493
C         63.77074        35.47500        -1.99070
C         65.00658        37.58139        -1.72908
C         63.74678        38.36274        -2.08401
C         64.92276        40.33590        -0.84784
C         63.79857        39.76769        -1.48279
C         64.85014        41.65350        -0.33512
C         63.64604        42.38500        -0.33046
C         64.74421        44.37509         0.61900
C         63.58309        43.75200         0.15909
C         64.79414        45.88059         0.77230
C         63.43870        46.52419         0.98570
C         64.55285        48.51666         2.13463
C         63.39006        47.80479         1.47325
C         64.56945        50.01262         1.89405
C         63.33455        50.68546         1.76690
C         64.60435        52.92065         1.79962
C         63.30559        52.15976         1.57749
C         64.52713        54.35335         2.07459
C         63.33051        55.02111         1.89590
C         64.53006        57.32631         2.28027
C         63.28134        56.44699         2.15414
C         64.50665        58.46251         1.21464
C         63.33629        59.44425         1.23379
C         64.63418        61.07385        -0.08844
C         63.37301        60.55060         0.34094
C         64.66478        62.23966        -0.90317
C         63.46604        62.89309        -1.26048
C         64.80539        64.73458        -2.52346
C         63.46298        64.08462        -2.13762
C         64.81564        66.17768        -2.82659
C         63.57539        66.78800        -3.11703
C         67.57291        33.40693        -2.01861
C         66.37947        34.02092        -1.89538
C         67.47504        36.19675        -1.76546
C         66.27002        35.47371        -1.91322
C         67.41237        37.51938        -1.31277
C         66.18451        38.22466        -1.29893
C         67.36550        40.28941        -0.60552
C         66.19990        39.62525        -0.86862
C         67.36181        41.78451        -0.39576
C         66.07347        42.19376         0.35686
C         67.15142        44.28568         1.12133
C         66.00124        43.67546         0.66542
C         67.10651        45.60953         1.77771
C         65.76158        46.31491         1.88483
C         67.06845        48.53502         1.96546
C         65.86456        47.82531         1.91629
C         67.05011        50.00543         2.02533
C         65.81634        50.69721         2.00167
C         67.04555        52.95163         2.26108
C         65.76299        52.15864         2.40726
C         67.02190        54.29808         2.41249
C         65.73278        55.07265         2.64751
C         66.99587        57.15796         1.90436
C         65.80166        56.50451         2.14276
C         67.00641        58.54482         1.44005
C         65.82283        59.21065         1.09762
C         67.06814        61.19253         0.27691
C         65.84866        60.47355         0.40717
C         67.17055        62.37293        -0.48972
C         65.99387        62.77773        -1.28852
C         67.27705        64.92576        -1.90147
C         66.07516        64.08996        -2.05950
C         67.28136        66.24782        -2.43899
C         66.04320        66.88326        -2.84170
C         67.25203        68.96387        -3.29304
C         66.08453        68.30369        -3.11252
C         70.15903        32.04161        -2.64137
C         70.07396        33.37001        -2.20547
C         68.79679        34.12190        -2.56419
C         69.95271        36.11476        -1.30411
C         68.81871        35.63733        -2.20348
C         69.90614        37.42917        -0.86174
C         68.60379        38.13605        -0.62646
C         69.79184        40.18688         0.10366
C         68.70775        39.64636        -0.81633
C         69.65190        41.52826         0.66456
C         68.55561        42.29111         0.38829
C         69.67666        44.30726         1.47208
C         68.50781        43.76670         0.69150
C         69.68340        45.69805         1.71301
C         68.38242        46.39698         1.89131
C         69.57207        48.60122         1.89604
C         68.31557        47.85413         1.92984
C         69.52239        50.04612         2.20046
C         68.29390        50.71335         2.15006
C         69.51507        52.86527         2.70499
C         68.33975        52.22552         1.95375
C         69.56689        54.34759         2.41755
C         68.28513        55.09788         2.66672
C         69.45174        57.13811         1.82689
C         68.26679        56.47723         2.06021
C         69.45939        58.54063         1.51423
C         68.26949        59.21288         1.30013
C         69.55946        61.36946         0.76355
C         68.26360        60.65258         0.95327
C         69.58963        62.62815        -0.01238
C         68.39109        63.10706        -0.61992
C         69.64972        65.14703        -1.30275
C         68.43643        64.38136        -1.30523
C         69.67913        66.43831        -1.92731
C         68.49869        66.96526        -2.51239
C         69.76816        69.07560        -3.14466
C         68.55311        68.20602        -3.37533
C         69.81663        70.35649        -3.71110
C         72.39105        31.83855        -1.74105
C         71.29946        31.27179        -2.40901
C         72.33589        33.16016        -1.31867
C         71.18153        33.95667        -1.53572
C         72.19024        35.92287        -0.31825
C         71.13080        35.33433        -1.09713
C         72.22044        37.24677        -0.01161
C         71.17541        38.18408        -0.54610
C         72.09475        40.08454         0.90838
C         70.95740        39.46965         0.24323
C         72.01553        41.29525         1.49668
C         70.70373        42.01823         1.65463
C         71.98878        44.19128         2.14071
C         70.82431        43.53432         1.70698
C         72.03873        45.58273         2.23514
C         70.88308        46.35745         2.04259
C         72.03953        48.61635         2.51096
C         70.89552        47.84706         2.00155
C         71.99316        49.96939         2.57169
C         70.78074        50.73941         2.36799
C         72.01513        52.89044         2.30772
C         70.81158        52.13826         2.44874
C         71.98631        54.25017         2.13421
C         70.74599        54.98758         2.16866
C         71.85125        57.27163         2.43835
C         70.79197        56.43688         1.74646
C         71.88081        58.59096         2.19876
C         70.78987        59.21276         1.39813
C         72.02095        61.52367         1.09831
C         70.85306        60.63316         0.93246
C         71.96782        62.78949         0.61629
C         70.79679        63.33685        -0.05439
C         72.02433        65.38585        -0.77431
C         70.83764        64.62312        -0.70757
C         72.04031        66.65027        -1.35061
C         70.88382        67.21687        -1.90960
C         72.00570        69.42958        -2.26497
C         70.89052        68.57997        -2.44109
C         72.02444        70.71264        -2.80200
C         70.93343        71.17542        -3.54295
O         57.55094        57.28969        -0.65721
O         62.04830        58.30581         2.91833
O         47.15455        53.67122        -2.68451
O         54.43988        53.70930         1.75215
O         47.90964        50.29318        -2.41616
O         66.31171        62.80799        -2.72410
O         67.74606        45.68632         3.10345
O         47.32624        45.91733         1.11116
O         68.81373        61.51402         2.03129
O         64.18575        52.55784         0.45508
O         59.95078        54.63278         3.12675
O         57.58396        49.64368        -0.92287
O         64.07607        63.90759        -3.46505
O         70.41130        48.32411         0.69246
O         61.75077        40.22640        -2.61961
O         55.22908        48.10678         1.33509
O         56.86012        41.96566        -2.37362
O         61.22599        47.86198         2.62723
O         71.10594        59.52317        -0.02160
O         48.85524        56.04863        -2.53816
O         71.15113        56.39442         0.33364
H         71.19769        57.31703        -0.00202
O         65.35887        46.40549        -0.46605
H         64.76984        46.14265        -1.20433
O         68.26150        55.30750         4.13899
H         68.47098        54.41802         4.52399
O         64.27272        48.39028         3.57522
H         64.28617        47.41875         3.76589
O         69.22369        52.70450         4.14437
H         70.07674        52.75681         4.62601
O         65.16222        45.86548         3.13542
H         65.91241        45.77002         3.76973
O         63.77686        38.51620        -3.53240
H         63.01581        39.09539        -3.76785
O         53.46606        42.03365         0.85659
H         52.62908        42.48322         1.10139
O         56.15975        55.21709        -1.09227
H         56.85481        55.92369        -1.26754
O         57.90179        50.52736         2.66004
H         58.62251        50.85812         3.24461
O         71.65722        38.65560        -1.86385
H         70.92660        39.20726        -2.24024
O         68.60479        52.42307         0.54056
H         67.88139        52.00764         0.02651
O         55.31843        58.67311        -1.42040
H         56.20637        58.18753        -1.36778
O         58.92545        39.76039         1.03760
H         58.17819        39.30582         1.47976
O         64.59292        57.91327         3.59401
H         64.70457        57.16777         4.22805
O         69.09734        36.34081        -3.45998
H         69.10509        37.30499        -3.27467
O         68.34988        37.96485         0.81164
H         68.18901        37.01192         0.97698
O         52.90463        54.49352        -2.09997
H         52.93019        55.43387        -2.38179
O         69.10817        39.91537        -2.19641
H         68.76503        40.81322        -2.42066
O         44.67200        55.43091         1.62491
H         43.99378        55.88012         2.17274
O         65.46203        52.12889         3.83649
H         66.15047        51.59354         4.28381
O         67.38247        42.35458        -1.73040
H         67.76431        43.26642        -1.65571
O         58.60539        61.49409         2.38183
H         59.40112        61.07126         2.77397
O         50.86837        48.22175         0.62779
H         51.59598        47.81990         1.14802
O         55.47696        56.48186         2.31268
H         56.28601        56.45092         2.88430
O         68.66595        67.72892        -4.76459
H         67.90097        67.13802        -4.93280
O         41.84219        50.15662        -0.98997
H         41.72697        51.10362        -1.22340
O         43.33163        47.95717        -1.59937
H         42.76282        48.75755        -1.71659
O         46.82362        48.43991         1.49055
H         47.43992        47.73744         1.80827
O         66.17015        41.52503         1.64951
H         65.38669        41.77722         2.18157
O         52.70604        48.70043        -2.54005
H         51.83341        48.68314        -3.00501
O         50.06473        48.33817        -2.94608
H         49.33746        48.82329        -3.39657
O         68.69077        44.40930        -0.64970
H         68.68021        45.38400        -0.52560
O         65.53161        55.19938         4.09461
H         66.43329        55.37517         4.46949
O         55.78195        61.21459         2.34292
H         56.69299        61.28947         2.71713
O         64.33875        57.75062        -0.05199
H         64.39689        58.40353        -0.78170
O         57.97505        56.69267         2.99463
H         58.59702        56.08443         3.46695
O         70.19363        41.64238         2.97831
H         69.95614        40.69150         2.94258
O         68.64778        33.96896        -4.00050
H         68.82263        34.85007        -4.40610
O         60.58642        52.03576         3.44387
H         60.43140        52.96294         3.75801
H         38.81154        49.13200         3.73394
H         36.96308        50.37777         4.78946
H         38.44062        54.06624         3.13024
H         36.77251        52.85360         4.47384
H         40.37154        48.21677         3.05319
H         39.90234        55.01189         2.34118
H         42.16016        47.00606         1.89333
H         41.77458        56.17949         1.29129
H         45.06196        44.72043         0.42320
H         42.93902        45.85929         0.17420
H         44.73678        58.18584        -1.21337
H         42.80721        56.92120        -0.33956
H         46.58972        43.79901        -0.79054
H         46.43596        59.28253        -0.78391
H         48.64553        42.64410        -1.42176
H         48.51188        60.48860        -0.48147
H         52.44935        40.47989        -1.46515
H         50.39016        41.73268        -1.78863
H         52.21152        62.62658         0.30248
H         50.11530        61.42183        -0.08219
H         54.14032        39.51349        -0.74278
H         53.90344        63.27788        -0.83204
H         56.28826        38.35684        -0.65555
H         56.05534        64.37224        -1.20245
H         60.03907        36.27088        -1.07415
H         58.10194        37.39318        -0.20087
H         59.80087        66.11632        -2.30111
H         57.69653        65.23182        -1.48786
H         61.66195        35.52071        -1.82044
H         61.44468        66.76971        -2.99839
H         63.76928        34.38420        -2.11989
H         63.55193        67.81650        -3.50060
H         67.62838        32.31124        -1.93105
H         65.48481        33.42678        -1.65702
H         67.23865        70.04582        -3.48632
H         65.14125        68.86660        -3.14593
H         69.31554        31.60696        -3.19550
H         68.97095        70.72368        -4.30888
H         73.29770        31.24413        -1.56179
H         71.34429        30.23141        -2.75949
H         73.21429        33.59004        -0.81957
H         73.00570        35.28222         0.04578
H         73.06551        37.64127         0.56991
H         73.06479        39.56881         0.87676
H         72.91026        41.71258         1.97971
H         72.90013        43.62091         2.36461
H         72.99097        46.06623         2.49392
H         72.95123        48.08506         2.81876
H         72.89110        50.50747         2.90738
H         72.97359        52.36166         2.20926
H         72.91630        54.79511         1.92275
H         72.62804        56.78978         3.05129
H         72.67201        59.23132         2.61722
H         72.94858        61.13165         1.53969
H         72.86006        63.42267         0.71532
H         72.96015        64.99200        -0.35746
H         72.98822        67.20407        -1.35933
H         72.87996        69.08556        -1.69629
H         72.90343        71.35513        -2.65352
H         70.95330        72.17849        -3.99084
