         404
 CSIRO Nanostructure Databank - Neutral Graphene Oxide Data Set
C          1.58946         1.50412        -0.99675
C          1.83200         2.69867        -1.77442
C          2.46796         1.13684        -0.02585
C          2.77969         3.58703        -1.37707
C          1.81872         6.71771        -2.01783
C          1.62111         7.99427        -1.50270
C          2.87174         5.93614        -1.53382
C          2.53520         8.54021        -0.58901
C          1.22010        10.74972        -0.53129
C          1.15707        12.07575        -0.31039
C          2.29390         9.88085         0.00041
C          2.19144        12.83283         0.42802
C          1.14893        15.06807        -0.16495
C          1.13470        16.42621        -0.24059
C          2.31149        14.30297         0.23252
C          2.29822        17.21194         0.17608
C          2.45606        18.62971        -0.21536
C          3.66082         1.93922         0.19954
C          3.55557         3.42860        -0.08195
C          4.83401         1.33065         0.52943
C          4.88339         4.18685        -0.01016
C          3.79951         6.42190        -0.58692
C          3.68239         7.79223        -0.19784
C          4.91462         5.60440        -0.10153
C          4.80775         8.46920         0.43939
C          3.46189        10.56178         0.70645
C          3.43148        12.06403         0.87363
C          4.74540         9.83068         0.74557
C          4.70761        12.81085         0.93796
C          3.52794        14.93168         0.45708
C          3.55691        16.41253         0.48467
C          4.75201        14.18825         0.74420
C          4.84282        17.11246         0.22613
C          3.64071        19.28023        -0.09255
C          4.88177        18.59170         0.21410
C          6.08647         2.04363         0.50627
C          6.06782         3.48235         0.33602
C          7.28264         1.34920         0.59224
C          7.29909         4.18071         0.51927
C          6.08735         6.31460         0.31238
C          6.06382         7.74588         0.52776
C          7.27376         5.59345         0.58453
C          7.27006         8.43600         0.77674
C          5.92302        10.55050         1.26617
C          5.91500        12.05291         1.32951
C          7.27039         9.84632         1.20634
C          7.25421        12.77268         1.27294
C          6.03457        14.89351         0.82315
C          6.10967        16.34665         0.50367
C          7.21941        14.21858         0.97242
C          7.29381        17.14269         0.82870
C          6.09634        19.23122         0.28529
C          7.32690        18.52749         0.58025
C          8.54363         2.01996         0.52498
C          8.54429         3.45466         0.58052
C          9.75809         1.32074         0.43629
C          9.78310         4.13085         0.57723
C          8.49540         6.32100         0.93195
C          8.52088         7.77419         0.79204
C          9.83076         5.56847         0.86639
C          9.75523         8.47541         0.77738
C          8.52690        10.62476         1.04376
C          8.49814        12.00544         1.02168
C          9.76311         9.91029         0.78482
C          9.71233        12.74236         0.62344
C          8.49323        14.94655         1.21909
C          8.49630        16.45008         1.30265
C          9.74741        14.26766         0.78504
C          9.80407        17.18204         1.27578
C          8.56368        19.23888         0.62958
C          9.80228        18.60089         0.85558
C         10.99695         2.00418         0.32518
C         10.99876         3.44142         0.38197
C         12.22882         1.32695         0.19240
C         12.22227         4.17227         0.24106
C         11.02713         6.33647         0.52977
C         10.98729         7.75798         0.56079
C         12.21382         5.60919         0.22171
C         12.16392         8.49606         0.22951
C         10.98175        10.61503         0.59567
C         11.00068        12.04724         0.56675
C         12.19080         9.89923         0.29777
C         12.19551        12.78201         0.41583
C         11.04476        14.93148         0.87338
C         11.09759        16.38266         1.13587
C         12.21382        14.22789         0.54948
C         12.30523        17.10807         0.72648
C         11.03706        19.24647         0.70515
C         12.27991        18.53517         0.67222
C         13.45047         2.03265         0.07894
C         13.44349         3.47797         0.06319
C         14.68210         1.35177        -0.02116
C         14.66416         4.19778        -0.11193
C         13.41085         6.30405        -0.09426
C         13.32157         7.75768        -0.30146
C         14.63718         5.62944        -0.23684
C         14.59524         8.52574        -0.60714
C         13.42754        10.62851         0.08743
C         13.44601        12.08603         0.24703
C         14.58661         9.95772        -0.27127
C         14.64973        12.79724         0.20977
C         13.46820        14.93837         0.44281
C         13.48812        16.37911         0.48282
C         14.67982        14.23010         0.26810
C         14.71695        17.08408         0.31426
C         13.50055        19.21780         0.46904
C         14.71123        18.51481         0.33350
C         15.90859         2.05225        -0.11132
C         15.89784         3.49242        -0.16668
C         17.13954         1.35837        -0.16258
C         17.13301         4.20773        -0.24005
C         15.87157         6.36051        -0.45518
C         15.87672         7.77485        -0.62469
C         17.10957         5.65465        -0.40324
C         17.08661         8.47763        -0.81473
C         15.83500        10.71321        -0.48868
C         15.94582        12.02539         0.26225
C         17.09181         9.97127        -0.84671
C         17.18482        12.81201        -0.07427
C         15.92860        14.94228         0.15052
C         15.94492        16.37011         0.16888
C         17.16875        14.23420        -0.00359
C         17.17364        17.09628         0.04510
C         15.95306        19.20627         0.19005
C         17.14732        18.52803         0.05105
C         18.36980         2.05215        -0.20576
C         18.34362         3.48893        -0.20247
C         19.61221         1.36227        -0.22874
C         19.62509         4.19630        -0.16999
C         18.31378         6.37240        -0.59065
C         18.30508         7.75860        -0.84696
C         19.61219         5.68506        -0.39122
C         19.58456         8.46442        -1.11803
C         18.36160        10.69875        -0.61986
C         18.38375        12.07671        -0.31736
C         19.59443        10.01701        -0.96722
C         19.65796        12.77182        -0.30704
C         18.38996        14.97595        -0.06640
C         18.41607        16.38714        -0.04628
C         19.65748        14.22116        -0.00838
C         19.66638        17.13035        -0.13306
C         18.40222        19.34989        -0.13338
C         19.68382        18.55387        -0.13593
C         20.86705         2.03346        -0.30344
C         20.88410         3.45889        -0.36109
C         22.10241         1.33615        -0.29749
C         22.10850         4.17210        -0.44739
C         20.84114         6.27872        -1.04234
C         20.85292         7.77565        -0.91614
C         22.11766         5.58885        -0.63267
C         22.05904         8.47351        -0.79043
C         20.88503        10.66585        -0.68919
C         20.86194        12.10130        -0.46015
C         22.05080         9.92626        -0.70221
C         22.13629        12.81477        -0.43896
C         20.94677        14.99014        -0.12730
C         20.90983        16.45493        -0.28793
C         22.19105        14.27346        -0.46882
C         22.10885        17.14949        -0.47784
C         20.89127        19.24250        -0.16371
C         22.13576        18.56493        -0.32130
C         23.34023         2.02579        -0.28081
C         23.34571         3.46175        -0.34742
C         24.58111         1.34387        -0.20180
C         24.57736         4.17982        -0.30141
C         23.31912         6.31734        -0.56311
C         23.28298         7.74368        -0.62956
C         24.57384         5.60856        -0.35009
C         24.48535         8.44893        -0.14609
C         23.37352        10.63559        -0.74568
C         23.30408        12.10495        -0.46290
C         24.47096         9.92347         0.01749
C         24.59741        12.79260        -0.61531
C         23.34720        14.96786        -0.71867
C         23.34952        16.45289        -0.98086
C         24.63554        14.26861        -0.86629
C         24.66121        17.13473        -0.63225
C         23.38274        19.23063        -0.24843
C         24.62841        18.53664        -0.31410
C         25.81303         2.03861        -0.15918
C         25.81659         3.48157        -0.19653
C         27.04767         1.35370        -0.07673
C         27.04939         4.19366        -0.13738
C         25.80717         6.29544        -0.27009
C         25.79308         7.76545        -0.35476
C         27.04724         5.62504        -0.17023
C         27.08125         8.51618        -0.27309
C         25.77053        10.66179         0.23241
C         25.77366        12.14541         0.03161
C         27.08303         9.95148         0.13620
C         27.06988        12.86613        -0.06086
C         25.93343        15.00406        -0.79946
C         25.89700        16.46386        -0.79247
C         27.08787        14.21757        -0.68397
C         27.11015        17.24482        -0.66475
C         25.83037        19.21901        -0.00757
C         27.08711        18.58710        -0.14637
C         28.28186         2.04619        -0.02163
C         28.28752         3.48599        -0.04665
C         29.51243         1.35353         0.06038
C         29.52188         4.19544         0.01496
C         28.30185         6.35487        -0.09901
C         28.33948         7.76944        -0.09993
C         29.53096         5.63409        -0.01156
C         29.55470         8.50516        -0.04271
C         28.34653        10.71713        -0.01747
C         28.33558        12.08887        -0.02418
C         29.58587         9.95099        -0.05273
C         29.60380        12.87194         0.20260
C         28.39694        14.67585        -1.02635
C         28.37801        16.74856        -1.03034
C         29.59644        14.20341        -0.51960
C         29.60359        17.22733        -0.52709
C         28.32303        19.23689         0.11866
C         29.57009        18.57445        -0.00906
C         30.74620         2.04082         0.13515
C         30.74751         3.48347         0.11429
C         31.97122         1.34162         0.23442
C         31.98942         4.18807         0.17651
C         30.76431         6.34486         0.01015
C         30.78183         7.77538        -0.02919
C         32.00151         5.62252         0.07270
C         32.02117         8.48107        -0.10381
C         30.81021        10.64452        -0.14080
C         30.84383        12.09065        -0.14799
C         32.04464         9.90402        -0.21238
C         32.00354        12.80035        -0.39346
C         30.81142        14.98079        -0.56557
C         30.80783        16.43033        -0.51963
C         32.03733        14.25902        -0.43401
C         32.03144        17.10195        -0.22406
C         30.80589        19.20740         0.25505
C         32.02674        18.51766         0.08337
C         33.20912         2.02146         0.40079
C         33.20058         3.47424         0.34452
C         34.40298         1.33325         0.62898
C         34.44174         4.17534         0.37741
C         33.23456         6.31886         0.01616
C         33.25084         7.75874        -0.12020
C         34.45595         5.58867         0.14316
C         34.46585         8.46804        -0.24404
C         33.27621        10.59100        -0.36402
C         33.24770        12.04417        -0.61418
C         34.50947         9.88907        -0.31794
C         34.55859        12.80836        -0.51356
C         33.27501        14.96206        -0.35119
C         33.26681        16.38853        -0.20140
C         34.52933        14.27107        -0.26014
C         34.49870        17.09431        -0.03477
C         33.25528        19.19231         0.26664
C         34.48927        18.51876         0.16516
C         35.63355         2.05571         1.08790
C         35.65731         3.48119         0.60261
C         36.92736         1.33263         0.82871
C         36.89583         4.15772         0.52559
C         35.69910         6.26842         0.08607
C         35.71398         7.69976        -0.24036
C         36.91493         5.58171         0.28747
C         36.99084         8.47513         0.11258
C         35.76839        10.63347        -0.20028
C         35.75026        12.01731        -0.20549
C         37.03777         9.95413         0.12036
C         36.99352        12.74301         0.13946
C         35.71603        14.97012        -0.03238
C         35.74204        16.40664        -0.02507
C         36.96314        14.22809         0.26897
C         36.98570        17.13148        -0.06805
C         35.72027        19.19731         0.32369
C         36.96518        18.56395         0.15203
C         38.12631         2.02092         0.72350
C         38.12013         3.45399         0.66325
C         39.41642         1.33153         0.73103
C         39.39048         4.19586         0.52543
C         38.10834         6.32074         0.59594
C         37.96745         7.67803         0.81230
C         39.39736         5.65133         0.89957
C         39.78097         8.74447         0.82581
C         38.25884        10.61583         0.11985
C         38.22973        12.04350        -0.37723
C         39.59009        10.00469         0.21258
C         39.53359        12.76297        -0.25239
C         38.26739        14.96601         0.23606
C         38.21623        16.38771        -0.17571
C         39.57904        14.19494        -0.03482
C         39.41964        16.94859        -0.57679
C         38.15337        19.35004         0.41835
C         39.39532        19.04523        -0.11848
C         40.60445         1.97740         0.65964
C         40.68356         3.44166         0.46235
C         41.93750         4.20370         0.70020
C         40.73791         6.39459         0.89894
C         40.82756         7.85043         0.52504
C         41.96321         5.54903         0.76869
C         41.86543         8.40102        -0.25157
C         40.73185        10.58505        -0.40339
C         40.72083        12.05207        -0.85745
C         41.84875         9.75787        -0.61236
C         41.98719        12.80543        -0.52017
C         40.80692        14.94727        -0.35718
C         40.73178        16.36452        -0.43919
C         42.00949        14.16550        -0.41451
C         41.85423        17.24418        -0.39372
C         40.71185        19.40218         0.28060
C         41.82243        18.60161        -0.02675
O          2.40726         9.88686         1.45793
O         24.74176        13.28706        -1.99691
O         39.36239        18.17591        -1.23872
O         38.78834         8.33117         1.73373
O         40.03662         6.04153         2.14849
O         10.61120        16.87793         2.44438
O          8.41530        15.60702         2.51408
O         40.02823         3.91828        -0.78088
O         19.77034         5.18891         0.95609
O          9.50316        13.64334        -0.53070
O         33.97739        12.45205        -1.82220
O         26.45075         8.28176        -1.58470
O         19.54175         9.34792        -2.27962
O         39.11724        14.66610         1.34720
O         36.91945        13.34615         1.45903
O          3.02247         4.69781        -2.17107
O          2.76000        16.97585         1.56097
O          6.56789        12.51871         2.54757
O         36.70984         8.01714        -1.26424
O         26.45391        10.21926         1.43582
O          2.41253        12.47761         1.83197
O          5.60106        16.55248        -0.89238
O         20.44848        14.56375         1.19921
O          9.19311         5.88454         2.14864
O         28.44176        15.71078        -1.97270
O         24.15270         9.09310         1.15918
O         16.26736        10.65108        -1.87783
O         13.66721         8.15842        -1.68299
O         26.27273        12.87466         1.19818
O          6.53113         9.97790         2.46623
O         35.53171         2.13178         2.58682
H         36.26314         2.70873         2.89585
O         20.65376         6.00038        -2.47872
H         21.29267         6.55078        -2.97990
O         29.65931        13.11943         1.64843
H         28.73883        13.15330         1.98827
O          2.69878         4.00793         0.95231
H          3.12344         3.84297         1.82029
O         37.97856        11.94479        -1.84745
H         37.30584        11.24346        -1.99752
O         16.10998        11.60134         1.66630
H         16.17475        12.40995         2.21782
O         18.46034        20.39596         0.85015
H         18.51819        19.97949         1.73436
O         40.63272        12.06214        -2.32190
H         39.67959        11.92660        -2.54843
O         23.84945        10.54163        -2.13430
H         23.37896        11.21441        -2.67167
O         23.26098        16.56238        -2.45323
H         24.01921        16.06747        -2.83281
H          0.72982         0.86865        -1.24955
H          1.25090         2.88272        -2.68710
H          2.38062         0.16400         0.47918
H          1.13611         6.30244        -2.76966
H          0.74813         8.56907        -1.83582
H          0.42476        10.28885        -1.13373
H          0.32741        12.63706        -0.76332
H          0.23582        14.52316        -0.44059
H          0.25392        16.95039        -0.64009
H          1.55959        19.17466        -0.54721
H          4.85323         0.24624         0.71765
H          3.69796        20.35707        -0.31193
H          7.26453         0.25218         0.67356
H          6.14103        20.32563         0.17926
H          9.74815         0.22080         0.41864
H          8.55896        20.31307         0.39230
H         12.24247         0.22696         0.17992
H         11.05192        20.32531         0.48965
H         14.69290         0.25194        -0.00319
H         13.50717        20.31692         0.43522
H         17.13840         0.25864        -0.14736
H         15.95661        20.30593         0.20115
H         19.60287         0.26286        -0.19053
H         18.32585        19.87159        -1.12876
H         22.09902         0.23710        -0.25493
H         20.88186        20.33993        -0.09071
H         24.58666         0.24440        -0.16472
H         23.39744        20.31298        -0.05206
H         27.05091         0.25388        -0.05207
H         25.78308        20.26681         0.32338
H         29.50900         0.25342         0.07567
H         28.31081        20.28319         0.45708
H         31.95787         0.24129         0.25172
H         30.82253        20.25952         0.57524
H         34.40252         0.23264         0.62947
H         33.24663        20.26938         0.49007
H         36.93479         0.23351         0.88931
H         35.70146        20.27555         0.54038
H         39.40114         0.23812         0.85517
H         38.05466        20.19314         1.11857
H         41.54516         1.41252         0.74491
H         42.88208         3.63812         0.71753
H         42.93429         6.06047         0.85879
H         42.72149         7.77949        -0.55003
H         42.71918        10.16647        -1.14466
H         42.93887        12.25273        -0.50058
H         42.97833        14.68267        -0.33942
H         42.85292        16.78336        -0.43427
H         40.86994        20.31307         0.87634
H         42.80728        19.04492         0.19361
