         244
 CSIRO Nanostructure Databank - Neutral Graphene Oxide Data Set
C          1.26346         2.10153         0.44204
C          1.23154         3.48571         0.13871
C          2.43397         1.39562         0.45878
C          2.42597         4.23280        -0.00766
C          1.20210         6.41912        -0.24867
C          1.18215         7.73231        -0.58897
C          2.42334         5.65467        -0.21146
C          2.41754         8.44608        -1.06983
C          1.19389        10.67751        -0.86354
C          1.13673        12.01121        -0.56096
C          2.39421         9.91916        -0.73840
C          2.31637        12.69928         0.07234
C          1.19878        14.96583        -0.04432
C          1.21407        16.38798         0.00544
C          2.35888        14.21025        -0.07693
C          2.39411        17.08204         0.21443
C          2.46919        18.51646         0.31075
C          3.72567         2.04103         0.05798
C          3.67681         3.54857         0.10286
C          4.91259         1.49270         0.80516
C          4.88542         4.26752         0.16160
C          3.66156         6.36522        -0.31597
C          3.67641         7.75868        -0.58867
C          4.89345         5.67896        -0.06207
C          4.89044         8.48994        -0.49846
C          3.62121        10.61400        -0.51792
C          3.60014        12.01544        -0.31378
C          4.87237         9.90370        -0.53748
C          4.80854        12.79614        -0.57868
C          3.63235        14.88279        -0.04011
C          3.63515        16.30503         0.31980
C          4.84423        14.23775        -0.29159
C          4.96806        17.06330         0.18600
C          3.65798        19.19954         0.28156
C          4.92754        18.54220         0.11500
C          6.05134         2.21448         0.95481
C          6.11799         3.60080         0.50972
C          7.23807         1.62626         1.68491
C          7.33646         4.28812         0.46989
C          6.13005         6.38990        -0.08559
C          6.14118         7.78922        -0.29182
C          7.37116         5.68429         0.09195
C          7.39055         8.48843        -0.34249
C          6.13000        10.65230        -0.19327
C          6.12122        12.07120        -0.71090
C          7.40795         9.90382        -0.47475
C          7.37753        12.85061        -0.64555
C          6.09614        14.94937        -0.41862
C          6.11618        16.33523        -0.32841
C          7.35524        14.22748        -0.64919
C          7.26738        17.14214        -0.87387
C          6.12995        19.20975         0.04266
C          7.36236        18.49837        -0.18183
C          8.54904         2.26782         1.29742
C          8.57144         3.60373         0.79464
C          9.73440         1.58053         1.47707
C          9.81299         4.23537         0.56452
C          8.59053         6.35519        -0.09565
C          8.62612         7.76763        -0.31446
C          9.84283         5.56849        -0.06224
C          9.85866         8.49231        -0.38292
C          8.61545        10.59695        -0.58432
C          8.62023        12.06314        -0.84872
C          9.85126         9.89200        -0.48357
C          9.91419        12.80115        -0.92777
C          8.59804        15.00979        -0.76234
C          8.57383        16.37021        -0.83598
C          9.92492        14.28525        -0.59729
C          9.80049        17.23642        -1.07140
C          8.57162        19.06711         0.13558
C          9.82748        18.42704        -0.14040
C         10.99355         2.20175         1.23287
C         11.03205         3.57356         0.81903
C         12.19717         1.47427         1.29580
C         12.30280         4.26836         0.73838
C         11.17266         6.27624        -0.19125
C         11.15689         7.75506        -0.43133
C         12.38326         5.64138         0.36510
C         12.45586         8.47673        -0.27596
C         11.10532        10.66712        -0.23959
C         11.18468        12.09638        -0.60237
C         12.41293         9.95140        -0.04816
C         12.38189        12.76468        -0.64681
C         11.13028        14.96142        -1.24042
C         11.12628        16.46801        -1.17168
C         12.42905        14.11726        -1.34200
C         12.36816        17.15473        -0.75708
C         11.01798        18.97576         0.24662
C         12.29095        18.35569        -0.04900
C         13.43215         2.13839         1.14373
C         13.47986         3.57124         1.08816
C         14.58605         1.44175         0.69240
C         14.74982         4.31698         1.40470
C         13.63669         6.35216         0.41451
C         13.68453         7.75788         0.14213
C         14.83064         5.67556         0.78469
C         14.87740         8.49444         0.32191
C         13.67836        10.67937        -0.22319
C         13.65487        12.07461        -0.45120
C         14.90112         9.94992         0.04206
C         14.87709        12.80599        -0.53107
C         13.69566        14.93661        -1.07270
C         13.66465        16.46705        -0.85843
C         14.91897        14.21650        -0.67987
C         14.84376        17.07521        -0.21341
C         13.48097        18.98958         0.42203
C         14.72166        18.37312         0.34259
C         15.76878         2.14510         0.41393
C         16.05682         3.34067         1.29915
C         16.68900         1.63509        -0.49430
C         17.40975         4.11581         0.96351
C         16.09643         6.36623         0.76937
C         16.07214         7.81008         0.64516
C         17.30428         5.63642         0.81097
C         17.32558         8.56900         0.81735
C         16.08591        10.65256         0.07684
C         16.17401        12.03644        -0.50931
C         17.31033        10.09174         0.74803
C         17.29967        12.86882         0.13787
C         16.10955        14.97048        -0.48294
C         16.07527        16.35602        -0.17632
C         17.42986        14.24160        -0.55177
C         17.27240        17.03224         0.29350
C         15.91335        19.10902         0.90301
C         17.22500        18.38311         0.73143
C         17.83178         2.38413        -0.89530
C         18.16060         3.57846        -0.26191
C         18.63988         1.85867        -1.98642
C         19.47609         4.24093        -0.60199
C         18.66070         6.30844         0.62136
C         18.61904         7.82975         0.61308
C         19.32872         5.78033        -0.65325
C         19.79529         8.54371         0.07120
C         18.60280        10.71635         0.25551
C         18.60908        12.11248         0.08245
C         19.81585         9.97034         0.06558
C         19.79947        12.83278        -0.07103
C         18.59705        14.97354         0.04351
C         18.52799        16.34362         0.36199
C         19.80961        14.25873         0.14707
C         19.72135        17.01280         0.78217
C         18.38857        19.04669         1.10120
C         19.65681        18.39779         1.11574
C         19.71987         2.52651        -2.47390
C         20.12552         3.77545        -1.89148
C         21.17761         4.51486        -2.36903
C         20.67179         6.43592        -0.93039
C         20.86243         7.82472        -0.52540
C         21.52016         5.78749        -1.79135
C         22.05201         8.51870        -0.83646
C         21.01918        10.64570        -0.29225
C         21.09870        12.15108        -0.37597
C         22.13846         9.89947        -0.67118
C         22.21093        12.76645         0.44511
C         21.00515        14.90346         0.57569
C         20.96629        16.30947         0.87102
C         22.16780        14.07453         0.80853
C         22.11924        17.03683         1.25935
C         20.83476        19.08121         1.50129
C         22.04774        18.39720         1.56107
O         18.17818         8.21637         1.97622
O         13.95052        15.86572        -2.17416
O          5.36882        12.35776        -1.90975
O         11.96777         8.11326        -1.61721
O         10.59070         5.54701        -1.33511
O         11.62793        10.36999         1.12537
O          9.26327        12.40370        -2.15967
O          4.47145        16.59394         1.48531
O         11.02672        15.73190        -2.46203
O         16.17572         2.76008         2.56298
O          7.28948         0.20641         1.53297
H          7.39154         0.00274         0.58099
O         10.24696        14.37062         0.82902
H          9.50691        13.98194         1.34198
O         14.68065         4.64052         2.81884
H         15.22303         3.90777         3.25719
O         19.54280         5.99296         1.71825
H         19.14242         6.38276         2.52565
O         16.93909        13.15503         1.50020
H         16.96095        12.30048         2.00415
O         21.41569        12.45122        -1.78609
H         21.30434        13.41827        -1.90918
O         17.78025        14.10636        -1.95190
H         17.24933        13.36131        -2.32978
O         17.18325        10.53994         2.15269
H         17.72440         9.90843         2.68622
O          9.60916        17.84299        -2.39490
H          9.93490        17.17821        -3.04720
O          6.12164        10.82431         1.27665
H          6.11826         9.92955         1.67939
O         16.53814        11.80266        -1.92620
H         15.75292        11.41672        -2.37105
O         20.40879         3.85748         0.43420
H         19.94618         3.98577         1.30296
O         12.53402        13.71969        -2.73341
H         12.55882        14.55399        -3.25671
O          3.93900         1.68127        -1.36843
H          4.75138         2.14793        -1.66020
O         18.43946         6.13681        -1.73885
H         18.87161         5.87678        -2.58038
O          2.41804         8.34445        -2.54717
H          2.47680         7.39207        -2.77376
O          6.95171        17.42019        -2.27075
H          7.77943        17.80499        -2.65675
O         18.27752         3.88198         2.09658
H         17.74264         3.26350         2.68720
O          2.16993        12.48738         1.53627
H          2.10002        11.51953         1.68210
O         15.98501        20.42891         0.34071
H         16.07199        20.34221        -0.63071
H          0.31458         1.59335         0.66895
H          0.25521         3.98442         0.08244
H          2.43601         0.31958         0.68578
H          0.25660         5.92724         0.02079
H          0.22163         8.26690        -0.60130
H          0.29016        10.18353        -1.24885
H          0.18562        12.55181        -0.66212
H          0.22017        14.46662        -0.05985
H          0.26288        16.93523        -0.06499
H          1.52492        19.07816         0.36974
H          4.88669         0.44635         1.14673
H          3.65169        20.29855         0.33137
H          7.08689         1.81859         2.78613
H          6.16489        20.30111         0.18649
H          9.70702         0.53849         1.82741
H          8.59222        20.05189         0.62896
H         12.17600         0.38195         1.41504
H         11.02323        19.89852         0.84593
H         14.46413         0.40765         0.33060
H         13.40304        19.98165         0.88827
H         16.48775         0.66927        -0.98413
H         15.74846        19.25500         2.00725
H         18.33037         0.90166        -2.43107
H         18.32262        20.09941         1.41416
H         20.28640         2.12881        -3.32914
H         21.76945         4.14811        -3.22115
H         22.45638         6.26058        -2.12042
H         22.91962         7.97279        -1.23014
H         23.06997        10.42007        -0.93306
H         23.10448        12.16235         0.66197
H         23.03049        14.51058         1.33346
H         23.09100        16.52841         1.32155
H         20.78395        20.14951         1.75440
H         22.96056        18.93309         1.85692
