         480
 CSIRO Nanostructure Databank - Neutral Graphene Oxide Data Set
C         37.56176        50.18023        -1.59566
C         36.38772        50.90179        -1.75490
C         37.56722        52.94851        -1.24862
C         36.39202        52.29606        -1.57759
C         40.04451        48.65784        -1.22768
C         40.00889        50.06115        -1.09128
C         38.77743        50.81760        -1.25791
C         40.00959        52.91093        -0.73622
C         38.78673        52.23655        -1.08370
C         40.07143        54.34616        -0.61170
C         42.42136        48.58442        -0.72235
C         41.22205        47.93643        -1.02475
C         42.42935        50.00149        -0.61184
C         41.21694        50.74353        -0.76632
C         42.42627        52.83497        -0.21928
C         41.21512        52.16846        -0.55926
C         42.42049        54.27928         0.23934
C         41.18760        55.00360        -0.20868
C         45.15558        46.01914        -1.25214
C         43.98152        46.65939        -1.34605
C         44.89820        48.58786        -0.21312
C         43.63768        47.76186        -0.35350
C         44.90371        49.96164        -0.31690
C         43.65826        50.70484        -0.40792
C         44.89702        52.83384        -0.30725
C         43.64290        52.11394        -0.23480
C         44.98948        54.26079         0.24471
C         43.71501        55.02441        -0.02928
C         44.92250        57.16374        -0.10493
C         43.77148        56.40622        -0.27544
C         47.58029        44.38668        -0.63834
C         47.52357        45.76042        -0.38243
C         46.14930        46.36543        -0.16017
C         47.45544        48.65655         0.10039
C         46.15665        47.87633         0.05947
C         47.41858        50.10720        -0.20040
C         46.16575        50.68726        -0.40031
C         47.83898        53.15046        -0.13746
C         45.99348        52.09465        -0.66965
C         47.57420        54.47355         0.33661
C         46.26941        55.11979        -0.09905
C         47.44941        57.28612         0.51367
C         46.12910        56.52627         0.53438
C         47.52174        58.66793         0.31258
C         50.01642        44.37241        -0.46795
C         48.79479        43.71190        -0.73276
C         49.98204        45.78082        -0.14729
C         48.73489        46.48861        -0.17542
C         49.94001        48.58102         0.22924
C         48.73787        47.90849        -0.00216
C         49.98486        50.06868         0.22241
C         48.74345        50.84358        -0.11749
C         49.83637        52.84784         1.16849
C         48.76513        52.27379         0.33042
C         49.76612        54.34449         1.44565
C         48.60117        55.13684         0.97366
C         49.82509        57.29413         1.16274
C         48.61512        56.59602         0.94438
C         49.88083        58.69248         0.94790
C         48.71698        59.35651         0.50764
C         52.57554        41.92002        -1.65033
C         51.37860        42.46444        -1.29347
C         52.49869        44.19652         0.12193
C         51.26826        43.70246        -0.59230
C         52.41080        45.69375         0.65634
C         51.17430        46.46491         0.20743
C         52.30846        48.51610         1.10951
C         51.14238        47.85172         0.40946
C         52.33256        50.03090         1.04575
C         51.17383        50.75767         0.82422
C         52.33656        52.89186         1.32539
C         51.15622        52.17088         1.10452
C         52.33501        54.34393         1.54113
C         51.05248        55.06759         1.72515
C         52.34998        57.26491         1.42998
C         51.05443        56.58029         1.59444
C         52.36166        58.68234         1.29749
C         51.13779        59.41089         1.14425
C         52.39443        61.49764         1.25869
C         51.18746        60.81329         1.14527
C         55.08623        40.41634        -1.38895
C         55.07662        41.80220        -1.20066
C         53.86765        42.66529        -1.50569
C         54.99007        44.47240        -0.21445
C         53.78892        43.82094        -0.54436
C         54.91902        45.85222         0.27414
C         53.70122        46.45913         0.45114
C         54.80277        48.50736         1.43428
C         53.64653        47.95940         0.59124
C         54.78864        50.02318         1.33532
C         53.57985        50.72136         1.29391
C         54.79938        52.88241         1.39821
C         53.58829        52.17497         1.31117
C         54.78993        54.35387         1.33461
C         53.51341        55.07229         1.54135
C         54.79450        57.23795         1.54331
C         53.55217        56.53166         1.54651
C         54.82594        58.64121         1.41899
C         53.60535        59.38254         1.33489
C         54.88679        61.51498         1.38265
C         53.62314        60.81118         1.33063
C         54.95629        62.92228         1.50522
C         57.50218        40.32914        -0.99998
C         56.26109        39.68684        -1.24641
C         57.51363        41.74986        -0.81744
C         56.28615        42.47199        -0.85179
C         57.51281        44.66167        -0.48069
C         56.23598        43.86659        -0.50808
C         57.43492        45.92520         0.34341
C         56.17492        46.57817         0.52868
C         57.33687        48.53383         1.60464
C         56.11642        47.86236         1.06237
C         57.36916        50.01970         1.26625
C         56.05261        50.75780         1.27941
C         57.23743        52.87102         1.90632
C         56.04697        52.21425         1.51087
C         57.34799        54.31561         1.77891
C         56.09151        55.07217         1.47908
C         57.32178        57.20285         1.33735
C         56.08406        56.52753         1.89204
C         57.29330        58.62592         1.09466
C         56.08580        59.35273         1.29018
C         57.35340        61.48228         1.15173
C         56.10747        60.77913         1.27087
C         57.39043        62.92281         1.22826
C         56.16167        63.59912         1.45155
C         59.87994        37.40990        -0.80498
C         58.73468        38.16850        -0.86317
C         60.01126        40.35367        -1.13135
C         58.72512        39.58205        -0.93391
C         59.97432        41.70953        -0.46310
C         58.75371        42.43815        -0.48801
C         59.94632        44.48911         0.13123
C         58.73998        43.82426        -0.19327
C         59.93490        45.88424         0.57659
C         58.65015        46.56744         0.75154
C         59.82592        48.55877         1.77933
C         58.62386        47.86802         1.26301
C         59.84693        50.05424         1.86572
C         58.56581        50.72252         1.79779
C         59.96578        53.01280         1.07104
C         58.32301        51.99165         2.36963
C         59.87103        54.36099         1.81786
C         58.53144        55.04946         1.64625
C         59.69246        57.11381         0.68959
C         58.49245        56.45761         1.27615
C         59.68300        58.58743         0.36726
C         58.47442        59.34108         0.74566
C         59.83300        61.42631         0.72820
C         58.52344        60.74060         0.84904
C         59.87703        62.92747         0.83340
C         58.60757        63.64760         1.02009
C         59.82877        65.73330         0.61780
C         58.65656        65.05723         0.90522
C         62.35917        35.87257        -0.12400
C         62.38711        37.26673        -0.29287
C         61.21743        38.01977        -0.80850
C         62.46449        40.18169        -0.23635
C         61.28701        39.53870        -0.86816
C         62.43135        41.61192         0.02344
C         61.17834        42.35251        -0.11746
C         62.42783        44.46169         0.23369
C         61.15214        43.74540         0.15130
C         62.40825        45.92991         0.59980
C         61.10944        46.51912         0.94567
C         62.41168        48.55639         1.81418
C         61.12199        47.79770         1.68498
C         62.39440        50.07253         1.87284
C         61.06924        50.75605         1.75762
C         62.34220        52.85433         1.32087
C         61.14471        52.16670         1.47849
C         62.26937        54.27461         0.88546
C         61.10246        55.10731         1.31360
C         62.24471        57.17270         0.31552
C         61.04099        56.51773         0.88081
C         62.17427        58.59947         0.08149
C         60.98016        59.28688         0.18512
C         62.23172        61.47060        -0.10042
C         60.89828        60.75692        -0.12372
C         62.23381        62.92397        -0.06606
C         61.06131        63.64755         0.31708
C         62.28173        65.77646         0.05943
C         61.05374        65.05515         0.31375
C         62.36596        67.17795         0.23438
C         64.75162        35.83165         0.33078
C         63.51863        35.17052         0.19568
C         64.78462        37.23299         0.26117
C         63.59373        37.96552        -0.04124
C         64.75352        39.99343         0.79733
C         63.58489        39.41298         0.03953
C         64.81317        41.51587         0.78392
C         63.59278        42.27616         0.43407
C         64.87598        44.41113         0.53803
C         63.67210        43.70623         0.44229
C         64.90532        45.84903         0.76519
C         63.67159        46.56783         1.03617
C         64.92098        48.63591         1.63156
C         63.66742        47.87827         1.44467
C         64.88776        50.11177         1.44300
C         63.65910        50.78766         1.50131
C         64.81232        52.89558         0.94478
C         63.62817        52.19298         1.26264
C         64.80922        54.36785         0.74864
C         63.49313        55.01781         0.46169
C         64.66521        57.17171        -0.05434
C         63.44834        56.49739         0.32758
C         64.60529        58.59513        -0.28737
C         63.42124        59.29943        -0.18126
C         64.65344        61.42942        -0.56782
C         63.40919        60.75375        -0.25875
C         64.57368        62.86563        -0.88452
C         63.39852        63.63095        -0.42112
C         64.70610        65.75396        -0.44244
C         63.46382        65.05758        -0.30792
C         64.76882        67.12424        -0.14690
C         63.58552        67.82712         0.17383
C         67.24016        33.04324        -0.11186
C         66.06527        33.70644        -0.04095
C         67.30278        35.81122         0.41736
C         66.00877        35.04924         0.64708
C         67.32100        37.19253         0.35349
C         66.06448        37.93767         0.36422
C         67.31805        40.04048         0.21638
C         66.06054        39.30568         0.44180
C         67.35318        41.53008         0.31569
C         66.11549        42.25223         0.72519
C         67.35203        44.37126         0.50028
C         66.13736        43.71467         0.52487
C         67.36571        45.85776         0.27499
C         66.11789        46.50510         0.82480
C         67.39660        48.66552         0.92931
C         66.19762        47.89351         1.28014
C         67.33958        50.09624         0.94468
C         66.10048        50.81115         1.13811
C         67.29134        52.95561         0.67939
C         66.06692        52.23002         0.89694
C         67.46207        54.47605         0.41086
C         66.06536        55.14066         0.39875
C         66.91044        57.04181        -1.07884
C         65.86744        56.48087        -0.19726
C         66.88531        58.55835        -1.35683
C         65.93977        59.28223        -0.38343
C         67.07843        61.41628        -1.07670
C         65.84643        60.74758        -0.73166
C         67.11993        62.81035        -1.16912
C         65.86276        63.58453        -1.20016
C         67.26469        65.60030        -0.67251
C         65.90777        65.10586        -1.12098
C         67.35046        66.93592        -0.04412
C         66.09482        67.76387         0.11413
C         67.53928        69.75221         0.28956
C         66.30124        69.21899         0.12218
C         69.74760        31.42619         0.11402
C         69.67482        32.82312         0.56254
C         68.48134        33.65841         0.31390
C         69.80476        35.75160         0.56970
C         68.53363        35.04828         0.46430
C         69.83569        37.17396         0.46278
C         68.58810        37.91896         0.33915
C         69.83990        40.08710         0.14828
C         68.59091        39.30163         0.26096
C         69.84762        41.54508         0.42915
C         68.63681        42.25249         0.48219
C         69.83802        44.37948         0.70403
C         68.61216        43.66351         0.58002
C         69.81355        45.82771         0.85545
C         68.63477        46.52215         0.74508
C         69.83455        48.67437         0.60774
C         68.61363        47.97200         0.79416
C         69.70226        50.07427         0.08133
C         68.53337        50.81439         0.72651
C         70.05524        53.04975        -0.44984
C         68.46593        52.21942         0.80927
C         69.51129        54.11692        -1.23072
C         68.36009        54.87227        -0.80814
C         69.26104        57.01875        -1.94727
C         68.10745        56.20973        -1.43045
C         69.43939        58.42300        -1.48911
C         68.24664        59.24192        -1.26423
C         69.53257        61.34723        -1.56623
C         68.30032        60.63313        -1.25056
C         69.53538        62.78842        -1.59693
C         68.36949        63.50979        -1.33709
C         69.69773        65.71446        -1.15578
C         68.39738        64.94461        -1.07702
C         69.84688        66.67704         0.02855
C         68.65815        67.60503         0.04581
C         70.05616        69.54000         0.65564
C         68.74643        68.94177         0.34925
C         70.15348        70.85999         1.13203
C         72.18310        31.43993         0.27607
C         70.93112        30.75938         0.07720
C         72.23515        32.77553         0.52164
C         71.01657        33.55010         0.79804
C         72.23523        35.73434         0.76110
C         71.02148        35.03182         0.69879
C         72.26310        37.12173         0.68409
C         71.07972        37.85635         0.51166
C         72.31254        40.11484         0.74890
C         71.15263        39.32575         0.29736
C         72.28545        41.47188         0.79108
C         71.07528        42.24493         0.59324
C         72.29578        44.44582         0.75967
C         71.06388        43.66882         0.70825
C         72.31294        45.78331         0.94221
C         71.07236        46.58001         1.26050
C         72.24438        48.73832         0.47578
C         71.07656        48.01336         0.72307
C         72.19880        50.08505         0.00911
C         71.02328        50.78537        -0.13153
C         71.49348        52.18691        -2.17968
C         70.93135        52.04939        -0.89794
C         71.12974        53.29638        -2.94869
C         70.17900        54.22304        -2.50642
C         71.27096        57.24118        -3.38051
C         70.13860        56.51290        -2.85791
C         71.56207        58.49001        -2.93971
C         70.71548        59.17430        -1.94764
C         71.90984        61.35917        -2.23803
C         70.68948        60.64772        -1.93973
C         71.98406        62.70898        -2.20425
C         70.74785        63.55088        -2.10271
C         72.13138        65.36354        -0.99135
C         70.92671        64.86013        -1.36109
C         72.26300        66.69185        -0.42416
C         71.17906        67.39789         0.00819
C         72.48355        69.36126         0.83519
C         71.24573        68.77125         0.51100
C         72.55745        70.67277         1.29750
C         71.38833        71.42413         1.44810
O         61.39188        56.17495         2.29113
O         66.66746        67.04147         1.27363
O         65.52727        55.11489         1.78796
O         67.20449        40.91833        -1.01281
O         62.53810        49.26425         3.08883
O         60.27379        62.01917         1.97323
O         65.50542        41.94418         2.02820
O         69.59986        66.65064        -2.32981
O         66.92903        56.26241        -2.35279
O         62.52115        45.50864        -0.80894
O         70.59201        58.59244        -0.60942
O         62.63379        54.38576        -0.54480
O         59.40119        52.85209         0.00368
O         64.96695        63.15624        -2.28890
O         69.92035        55.24424        -3.41524
O         60.36436        47.80888         2.94223
O         50.96717        55.91071         2.91351
O         46.74322        48.26035         1.35334
O         47.07878        52.75330        -1.24367
O         70.65331        39.72740        -1.02194
O         61.60506        38.73904        -2.05610
O         70.22256        33.03906         1.91256
O         59.46489        57.56275        -0.68103
O         49.44152        53.35131         2.48467
O         49.72199        50.55229        -1.17238
O         56.82657        50.39349        -0.00661
O         65.78685        48.12214         2.68788
O         69.66722        52.93476         0.88364
O         55.55425        54.85199         0.14637
O         52.33138        45.63182         2.07289
O         67.34361        46.07092        -1.18396
H         66.56306        45.59512        -1.54075
O         60.38655        60.88050        -1.49223
H         60.93255        60.31183        -2.07564
O         70.43430        63.90477        -3.51131
H         70.22365        63.06877        -3.97922
O         69.20310        49.89503        -1.31896
H         69.72403        49.17005        -1.72689
O         68.76570        66.04837        -3.34518
H         69.33942        65.30269        -3.68006
O         53.78691        48.49236        -0.75163
H         54.68075        48.26507        -1.08589
O         56.18828        56.53826         3.35165
H         56.12626        57.46937         3.65231
O         52.10450        48.21705         2.50198
H         52.20767        47.22171         2.60478
O         58.94051        52.22850         3.52991
H         58.79329        53.14420         3.85632
O         64.47815        39.61061         2.18316
H         64.95324        40.25861         2.75389
O         57.25446        48.52557         3.09507
H         57.88659        47.85320         3.43286
O         71.04417        46.72721         2.71862
H         70.98167        45.82869         3.10536
O         65.80398        65.59756        -2.49509
H         65.28671        64.92236        -2.99414
O         57.68912        45.11618        -1.88672
H         58.59462        45.48740        -1.96560
O         45.03803        53.98935         1.68663
H         44.09952        53.85661         1.98732
O         45.83591        56.46974         1.95608
H         45.47732        55.57130         2.17616
O         69.78699        65.87520         1.23974
H         69.66887        66.48086         2.00094
O         66.57251        59.17037         0.92311
H         65.98154        59.57707         1.59058
O         52.60386        43.35469         1.30953
H         52.52219        44.01528         2.07582
O         54.58458        48.17777         2.82752
H         55.44367        48.31145         3.29874
O         45.66325        45.77508         1.08763
H         46.16528        46.22016         1.80895
O         66.38746        58.76103        -2.69192
H         66.51760        57.91278        -3.18001
O         42.33966        54.20034         1.74706
H         41.54683        53.66270         1.96405
O         54.12216        43.26211        -2.83390
H         55.01820        43.66459        -2.81103
O         43.31298        47.14628         0.91967
H         44.06205        46.53831         1.15741
O         46.30855        55.32931        -1.52288
H         46.55613        54.47151        -1.94082
O         65.95234        34.77017         2.08736
H         66.76790        34.27649         2.32020
O         60.02675        40.68658        -2.56099
H         60.45841        39.92034        -3.00978
O         68.14547        55.04787         1.55057
H         67.49667        55.07144         2.29007
O         60.14295        54.23387         3.23722
H         60.55468        55.08966         3.51039
H         37.53141        49.09189        -1.73823
H         35.45517        50.38368        -2.01736
H         37.54178        54.03738        -1.11053
H         35.46164        52.86776        -1.69917
H         39.12837        48.10066        -1.46340
H         39.18214        54.94120        -0.86146
H         41.19900        46.83933        -1.08703
H         41.14660        56.09554        -0.09461
H         45.40930        45.21631        -1.96139
H         43.26209        46.39123        -2.13557
H         44.86082        58.25344        -0.23975
H         42.85234        56.93636        -0.56804
H         46.64429        43.82414        -0.76128
H         46.63306        59.22789        -0.00947
H         48.78180        42.63396        -0.94086
H         48.73904        60.43713         0.31374
H         52.58197        40.98040        -2.22078
H         50.46020        41.93757        -1.59336
H         52.37357        62.59541         1.26018
H         50.26161        61.39822         1.06541
H         54.16125        39.88404        -1.64826
H         54.03731        63.50601         1.64913
H         56.22360        38.60040        -1.39695
H         56.15085        64.69149         1.56219
H         59.78867        36.32221        -0.68474
H         57.77450        37.63663        -0.80016
H         59.79427        66.82982         0.57719
H         57.74393        65.64950         1.05723
H         61.42406        35.31446        -0.26661
H         61.47155        67.75896         0.49427
H         63.45888        34.08092         0.32054
H         63.63517        68.90202         0.39640
H         67.26294        32.02088        -0.51463
H         65.14039        33.21519        -0.37379
H         67.64092        70.84653         0.30418
H         65.43968        69.88265        -0.04168
H         68.82837        30.91072        -0.19696
H         69.24601        71.46322         1.27018
H         73.11337        30.87786         0.11194
H         70.95397        29.70175        -0.22114
H         73.20684        33.28860         0.49907
H         73.18313        35.19401         0.88174
H         73.23232        37.63600         0.72491
H         73.23071        39.59104         1.05078
H         73.19867        42.00149         1.09692
H         73.25018        43.92214         0.60409
H         73.28418        46.29826         0.98255
H         73.23002        48.26924         0.59726
H         73.15001        50.57635        -0.24436
H         72.18510        51.43157        -2.57591
H         71.56456        53.44021        -3.94634
H         71.87842        56.76472        -4.16171
H         72.37073        59.05781        -3.42296
H         72.82635        60.77401        -2.40257
H         72.94404        63.20472        -2.40446
H         73.05932        64.80390        -1.17838
H         73.27176        67.12894        -0.39967
H         73.40901        68.77697         0.73739
H         73.53266        71.11191         1.54930
H         71.43961        72.45680         1.81988
