         317
 CSIRO Nanostructure Databank - Neutral Graphene Oxide Data Set
C         30.14340        31.89374        -0.29526
C         30.29347        33.11076        -0.51464
C         30.50637        36.24169        -1.17612
C         30.49149        37.45842        -0.97374
C         30.74902        40.68697        -0.99202
C         30.81103        41.97336        -1.12739
C         32.42051        28.90766        -0.07504
C         31.36265        29.54463        -0.06310
C         32.55602        31.72686         0.16646
C         31.16708        30.97878         0.17250
C         32.61215        33.15729        -0.23549
C         31.50486        33.86911        -0.66793
C         32.59217        35.99560        -0.11718
C         31.67301        35.28857        -1.17132
C         32.73553        37.50216        -0.36029
C         31.42885        38.33362        -0.16199
C         32.95702        40.39823        -0.27428
C         31.66343        39.75761        -0.59113
C         33.14505        41.90464        -0.41166
C         31.87888        42.74970        -0.79187
C         33.25008        44.64592        -0.21007
C         32.19409        44.12540        -0.64246
C         35.21988        27.21831         0.19539
C         35.02098        28.66104        -0.26329
C         33.80516        29.40439         0.31088
C         35.13637        31.58471        -0.19228
C         33.75632        30.87986        -0.30051
C         35.10147        33.00722         0.38678
C         33.99322        33.81208        -0.31599
C         35.20294        35.98285         0.44561
C         33.91473        35.26970         0.16317
C         35.37413        37.34909        -0.22445
C         34.07428        38.18754        -0.30783
C         35.25454        40.18621         0.78157
C         34.09247        39.65190        -0.04518
C         35.27500        41.72171         0.97093
C         34.02714        42.52404         0.70677
C         35.30730        44.66403         1.38556
C         33.95961        44.09212         0.98607
C         35.54412        46.10462         1.21245
C         37.67503        27.17541        -0.02851
C         36.32290        26.66840         0.05613
C         37.67381        28.54766        -0.02438
C         36.38069        29.34718         0.23038
C         37.76088        31.59909         0.00203
C         36.43314        30.82497        -0.18318
C         37.64097        32.91211         0.80662
C         36.44480        33.72075         0.31987
C         37.79706        35.85593         0.40388
C         36.47273        35.15692         0.80106
C         37.75917        37.33266         0.86742
C         36.62795        38.11931         0.20303
C         37.82318        40.17511         1.21454
C         36.61591        39.57795         0.48232
C         37.89029        41.68039         0.97476
C         36.59919        42.46779         0.73936
C         37.93511        44.61271         1.40739
C         36.61034        43.86606         1.37177
C         37.81977        46.13282         0.29463
C         36.61285        46.66877         0.93145
C         40.24021        24.51006        -0.94744
C         39.17708        25.06362        -0.63374
C         40.20907        27.13834        -0.26961
C         38.90796        26.32786         0.18574
C         40.20073        28.55563         0.34100
C         38.95791        29.36363        -0.15371
C         40.18213        31.52743         0.32775
C         38.90113        30.73685         0.58234
C         40.17108        32.93466         0.44083
C         38.98170        33.64232         0.67517
C         40.29853        35.88321         0.68245
C         39.01856        35.12222         0.99683
C         40.31657        37.25393         0.67530
C         39.08795        38.04648         0.72725
C         40.37584        40.12898         0.85294
C         39.10924        39.41644         0.87820
C         40.40189        41.61992         1.08427
C         39.07389        42.33290         0.92402
C         40.33350        44.45033         0.23439
C         39.16641        43.82394         0.96001
C         40.21191        45.86854        -0.23544
C         39.15503        46.72556         0.39189
C         40.70056        48.62215         0.29641
C         39.59466        48.02175         0.57626
C         42.90488        24.48925        -0.76927
C         41.60124        25.11348        -1.15214
C         42.79287        27.13506         0.27217
C         41.51154        26.31149         0.02426
C         42.79088        28.63594         0.31360
C         41.48635        29.32634         0.01511
C         42.73974        31.57364         0.46556
C         41.45079        30.82388         0.08275
C         42.66280        32.94735        -0.21665
C         41.36448        33.75841        -0.06385
C         42.76262        35.88607         0.22888
C         41.58161        35.06784         0.77435
C         42.94960        37.26705         0.88247
C         41.57067        37.99325         1.12835
C         42.88756        40.22223         0.91606
C         41.57205        39.46899         0.81137
C         42.75181        41.63668         0.37407
C         41.55081        42.25614         0.30817
C         42.65114        44.30891        -0.75061
C         41.35185        43.54568        -0.47942
C         42.52759        45.69148        -1.35082
C         41.28458        46.50104        -1.03491
C         42.69406        48.53301        -1.34158
C         41.26844        48.39149        -1.06765
C         43.92379        25.13281        -0.49005
C         45.31471        27.22868         0.02617
C         44.14522        26.34350         0.34935
C         45.31591        28.66791         0.11085
C         44.05487        29.42047         0.17589
C         45.23573        31.59723         0.03254
C         44.00800        30.80355         0.11854
C         45.23614        32.95171        -0.22241
C         43.94498        33.66788        -0.48215
C         45.17917        35.92575        -0.89916
C         43.90967        35.18235        -0.46067
C         45.30582        37.28005        -0.10010
C         44.04723        38.10721         0.18428
C         45.23561        40.30335        -0.11224
C         44.05210        39.47968         0.23190
C         45.24579        41.67903        -0.10689
C         44.01523        42.45959         0.30724
C         45.12487        44.59504        -0.54906
C         43.86625        43.77841        -0.44051
C         45.09988        45.63701        -1.72017
C         43.79487        46.39612        -1.77123
C         43.68432        47.85553        -1.60748
C         47.73171        27.34777        -0.02314
C         46.62624        26.74966        -0.05725
C         47.82788        28.74939         0.22283
C         46.53295        29.38906         0.18864
C         47.79961        31.54443         0.05359
C         46.48430        30.87457         0.50852
C         47.72212        33.07954         0.22630
C         46.54612        33.64093        -0.63402
C         47.82442        35.94985        -0.34716
C         46.54819        35.18528        -0.68440
C         47.81307        37.46578        -0.10493
C         46.50691        38.07741        -0.68276
C         47.80450        40.29610        -0.18110
C         46.50735        39.57932        -0.43399
C         47.65746        41.63506         0.51887
C         46.55578        42.49107        -0.27433
C         47.71372        44.81409        -0.35666
C         46.42636        44.03440        -0.05002
C         47.41656        45.89428        -1.24182
C         46.35558        46.45894        -1.55922
C         50.32266        28.94727         0.75131
C         49.01169        29.43696         0.55077
C         50.17645        31.70195         1.19024
C         48.97005        30.91218         0.79903
C         50.20676        33.23469         0.94657
C         49.10476        33.72751        -0.06137
C         50.31075        35.96031         0.16313
C         49.03915        35.23336         0.07414
C         50.35749        37.43493        -0.20606
C         49.09102        38.15818        -0.66083
C         50.27443        40.28252         0.15310
C         49.12453        39.60081        -0.14039
C         50.22448        41.71208         0.56176
C         48.99475        42.28461         0.75022
C         50.26852        44.68400         0.01706
C         48.86610        44.53120         0.29268
C         51.42222        29.48674         0.99027
C         52.71359        31.70104         0.96234
C         51.72138        30.81684         1.59397
C         52.60658        32.87829         0.60834
C         51.54807        33.82511         0.46125
C         52.66412        36.03782        -0.14839
C         51.58236        35.14655         0.16604
C         52.75581        37.25615        -0.31827
C         51.65438        38.22866        -0.60516
C         52.62815        40.56590        -0.16157
C         51.64109        39.51056         0.23573
C         52.62011        41.76841         0.08135
C         51.54058        42.58511         0.72166
C         51.22630        43.91747         0.10802
O         34.28307        41.97658         2.02491
O         45.59404        44.83763         0.84965
O         40.36716        44.30205         1.67337
O         42.90001        45.85201        -2.77093
O         35.83165        44.06674         2.59885
O         35.84970        31.28836        -1.43254
O         40.11903        46.00435        -1.73423
O         48.80187        43.54805         1.33321
O         43.18524        33.00976        -1.57160
O         47.24666        40.21448        -1.53342
O         42.81969        31.71409         1.84686
O         50.34871        37.06777         1.19407
O         33.39187        37.88172        -1.58317
O         42.69012        27.85047         1.56401
O         34.25644        35.72973         1.52278
O         41.55211        30.10583        -1.19921
O         47.47617        35.58711        -1.74704
O         31.83807        31.37958         1.39043
O         49.20776        31.32796         2.19858
O         42.80896        35.80844        -1.20408
O         34.97870        28.66748        -1.66865
H         34.07679        28.41032        -1.95705
O         33.09196        44.26210         2.09912
H         33.59876        44.05222         2.91298
O         40.73634        41.76194         2.49647
H         40.83694        42.72755         2.67142
O         34.03838        42.06795        -1.56476
H         33.57818        41.75020        -2.37151
O         46.71350        33.24972        -2.02740
H         46.06619        33.76707        -2.55871
O         51.79789        42.75028         2.09480
H         52.51978        43.40052         2.21599
O         40.10896        27.35197        -1.68001
H         39.89503        26.50894        -2.13733
O         33.85319        29.45383         1.70958
H         33.07254        29.96749         2.02706
O         41.34270        37.99833         2.58201
H         41.06330        37.09576         2.84994
O         40.80984        43.17335        -1.76529
H         39.95355        42.71517        -1.63334
O         38.99160        35.12216         2.46589
H         39.88043        34.79050         2.75313
O         39.07156        29.70875        -1.53528
H         39.38073        28.91990        -2.03898
O         31.81227        35.83928         1.10063
H         32.43628        35.81579         1.86246
O         36.48167        35.05589         2.25147
H         35.54375        34.89185         2.52035
O         46.92651        42.62896        -1.65636
H         46.80687        41.77328        -2.13217
O         46.40942        30.97003         1.96859
H         45.47025        30.84198         2.23372
O         44.21912        42.78935         1.72875
H         44.71458        43.64995         1.77307
O         34.95571        39.58759         2.07256
H         34.37496        40.21230         2.56729
O         51.86822        39.16202         1.58078
H         51.91020        39.97608         2.12403
O         46.46601        37.95751        -2.10932
H         47.29450        38.36536        -2.46440
O         34.73129        32.85392         1.77945
H         35.51687        32.46276         2.24253
O         37.52932        45.62829        -0.96950
H         38.25571        45.83735        -1.60093
O         38.73719        30.60317         1.98888
H         39.28063        29.84177         2.30740
O         45.65857        36.73139         1.18806
H         45.76523        37.45725         1.83953
O         38.21369        32.03538        -1.28822
H         37.43823        32.07565        -1.89375
O         47.40096        33.40634         1.59120
H         46.97863        32.61657         2.02417
O         49.06126        38.16438        -2.09753
H         49.89960        38.58644        -2.41342
O         41.79639        34.73567         2.16656
H         42.50245        35.33607         2.51675
O         51.81419        30.78226         2.96181
H         50.94162        30.53272         3.33623
O         36.63544        42.70596        -0.70234
H         35.74383        42.55892        -1.10972
O         41.36440        25.58832         1.25298
H         42.25285        25.26481         1.53323
O         43.45304        36.95632         2.20915
H         43.31528        37.76403         2.75999
O         34.43231        33.87247        -1.68558
H         33.78786        34.40823        -2.21454
O         48.04414        31.15782        -1.30520
H         47.45046        31.66964        -1.90561
O         38.16601        45.12057         2.67695
H         37.30028        45.17358         3.14661
O         45.21831        44.83804        -2.88129
H         44.48835        45.07007        -3.49998
O         40.47189        48.80590        -2.09311
H         39.52958        48.70423        -1.85228
O         37.41468        32.63863         2.21258
H         37.42036        33.52146         2.66582
O         37.59491        40.04320         2.63476
H         38.44153        40.22346         3.09580
O         40.11899        28.41772         1.76791
H         40.98239        28.04927         2.08753
O         49.53701        33.40569        -1.39374
H         48.81711        33.67420        -2.01159
O         49.97320        33.86976         2.20379
H         49.06635        33.60834         2.49781
O         40.90663        34.15353        -1.36133
H         41.66007        34.06911        -1.99331
O         35.65745        36.94743        -1.59834
H         35.84879        37.76928        -2.10475
O         36.32636        29.42131         1.66596
H         36.22797        28.51026         2.01838
O         33.45148        30.76203        -1.70229
H         34.30883        30.74280        -2.19454
O         38.85833        26.01407         1.54982
H         39.65981        25.49531         1.79295
O         44.98957        35.97806        -2.30889
H         45.73174        36.49964        -2.70086
O         32.28271        35.29402        -2.46082
H         31.63023        34.98381        -3.12232
O         43.25349        40.26054         2.32158
H         43.60217        41.16393         2.51207
O         36.95701        39.10180        -0.84483
O         51.65265        38.59204        -1.98263
H         52.10165        37.89520        -2.50433
O         47.82938        37.77256         1.30020
H         48.69855        37.46084         1.66761
O         37.42781        37.38222         2.27049
H         37.95663        36.69399         2.73832
O         37.99838        35.77559        -1.00583
H         37.19352        36.11429        -1.47532
O         41.73899        25.62719        -2.44858
H         42.00844        24.90632        -3.05386
O         44.28800        25.88081         1.70322
H         44.16540        26.65782         2.29430
O         31.02567        38.36761         1.18962
H         30.89904        37.43061         1.47895
O         47.11862        41.36346         1.83456
H         47.28094        42.15066         2.39798
