         210
 CSIRO Nanostructure Databank - Neutral Graphene Oxide Data Set
C         30.83920        31.63837        -2.00852
C         30.71926        32.83466        -1.68852
C         30.59874        35.95241        -0.80260
C         30.44099        37.21223        -0.53324
C         30.47434        40.31512        -0.01894
C         30.40258        41.55823         0.16161
C         33.25809        28.84161        -1.56116
C         32.21762        29.43902        -1.95633
C         33.09030        31.52461        -1.15878
C         31.96065        30.79894        -1.75822
C         33.04778        32.94455        -0.96540
C         31.86552        33.79065        -1.54336
C         32.89334        35.84148        -0.61835
C         31.61718        35.05666        -0.77790
C         32.84684        37.32929        -0.49958
C         31.54787        38.04797        -0.41596
C         32.80609        40.19331        -0.06231
C         31.57613        39.45231        -0.15475
C         32.81354        41.62709         0.07765
C         31.56051        42.36404         0.21608
C         32.86002        44.33840         0.32014
C         31.74902        43.76367         0.34856
C         35.77241        27.27221        -0.31178
C         35.37563        28.62801        -0.18155
C         34.32819        29.35759        -0.80518
C         35.24828        31.50099         0.06662
C         34.22499        30.79549        -0.66722
C         35.29471        32.93503         0.06364
C         34.15497        33.63155        -0.40609
C         35.32830        35.87484        -0.06800
C         34.03615        35.09114         0.05357
C         35.30412        37.31498        -0.14159
C         34.08621        38.05120        -0.16072
C         35.30683        40.16905        -0.12584
C         34.06272        39.46105        -0.09261
C         35.30776        41.62412        -0.13583
C         34.07582        42.33710         0.02676
C         35.37235        44.46958         0.01508
C         34.14570        43.77410         0.11713
C         35.60068        45.84719         0.28587
C         37.71257        27.31275         1.11436
C         36.77354        26.72686         0.21731
C         37.28376        28.60927         1.43181
C         36.20991        29.30235         0.77429
C         37.95036        31.89777         1.35581
C         36.08271        30.70981         0.90251
C         37.82683        33.11931         0.72905
C         36.44305        33.77269         0.69746
C         37.77306        35.85940        -0.07744
C         36.51564        35.18207         0.11387
C         37.77432        37.28265        -0.23879
C         36.54054        38.02651        -0.16957
C         37.78270        40.12275        -0.68299
C         36.51262        39.45257        -0.20723
C         37.84765        41.67765        -0.57591
C         36.51512        42.33414        -0.28792
C         37.90600        44.36310        -0.27335
C         36.57058        43.74479        -0.27317
C         37.89958        46.47660         0.45517
C         36.51769        46.58900         0.72494
C         40.21636        24.69509         1.90862
C         39.18532        25.38909         1.70045
C         40.24070        27.47530         1.69072
C         38.98208        26.76602         1.56536
C         40.29653        28.93068         1.56936
C         39.18222        29.76783         1.77606
C         40.35097        31.74386         0.91150
C         39.15328        31.12351         1.37375
C         40.30211        33.09699         0.46521
C         39.04442        33.78256         0.32443
C         40.26368        35.81672        -0.58660
C         39.00493        35.14186        -0.08384
C         40.24647        37.31517        -0.36905
C         39.02774        37.97365        -0.30836
C         40.26450        40.20715        -0.47476
C         39.00948        39.45833        -0.03815
C         40.26987        41.58524         0.14513
C         38.91386        42.22122         0.44246
C         40.16238        44.43915         0.86740
C         38.98947        43.73822         0.28207
C         40.24023        45.89604         1.20981
C         39.03997        46.71614         1.25081
C         40.25131        48.24618         2.66044
C         39.20213        47.82378         2.11995
C         42.78946        24.70492         1.90316
C         41.49143        25.28861         1.88150
C         42.74861        27.46733         1.65840
C         41.48727        26.74526         1.77352
C         42.75563        28.86717         1.43394
C         41.54050        29.60504         1.30166
C         42.81844        31.70834         0.82513
C         41.56956        31.00546         1.00735
C         42.79252        33.13126         0.52010
C         41.55148        33.79397         0.26637
C         42.74834        35.87033        -0.19415
C         41.54480        35.15854        -0.12020
C         42.74000        37.29069        -0.70877
C         41.48646        38.04881        -0.36442
C         42.75820        40.19395        -0.26887
C         41.53013        39.43050        -0.26714
C         42.73005        41.60290        -0.01620
C         41.45602        42.25356         0.27573
C         42.74081        44.35569         0.93167
C         41.46988        43.62068         0.86155
C         42.72062        45.65151         1.52148
C         41.47014        46.36138         1.79107
C         42.81346        48.05930         2.88104
C         41.51479        47.63171         2.52276
C         43.82963        25.35831         1.68707
C         45.21751        27.38081         1.19339
C         44.02498        26.75958         1.56838
C         45.36799        28.84868         1.25962
C         44.00861        29.62757         1.41427
C         45.33410        31.71755         0.97273
C         44.02046        31.02727         1.00014
C         45.31407        33.21019         0.71360
C         44.00410        33.86346         0.44307
C         45.23135        36.00149         0.06322
C         43.97215        35.22466         0.08635
C         45.20322        37.40749        -0.38338
C         44.00968        38.06974        -0.45446
C         45.21955        40.24808        -0.36171
C         43.99219        39.51662        -0.40859
C         45.17229        41.65976        -0.21513
C         43.94433        42.34164         0.03330
C         45.16996        44.44768         0.60416
C         43.94112        43.73915         0.47609
C         45.19538        45.66179         1.35053
C         44.00034        46.24375         1.82222
C         43.85470        47.44801         2.54492
C         47.42249        27.39380         0.21765
C         46.41531        26.81971         0.68355
C         47.64369        28.80843         0.16684
C         46.52920        29.54810         0.65225
C         47.71809        31.65095         0.12674
C         46.56082        30.96606         0.58737
C         47.72339        33.10458         0.00240
C         46.55717        33.82657         0.20359
C         47.77817        35.99966        -0.33006
C         46.55506        35.29220         0.10383
C         47.75663        37.37702        -0.51395
C         46.46596        38.09844        -0.81671
C         47.70028        40.26419        -0.53578
C         46.47777        39.57291        -0.50946
C         47.71368        41.69711        -0.45632
C         46.42365        42.39876        -0.41284
C         47.73771        44.49637         0.27756
C         46.40806        43.90938         0.00018
C         47.56107        45.69502         1.00806
C         46.52269        46.17566         1.51190
C         50.02338        28.89335        -0.68341
C         48.80752        29.47879        -0.26410
C         50.11629        31.59596        -0.61436
C         48.89084        30.91590        -0.25441
C         50.14114        33.04566        -0.61153
C         48.95709        33.80245        -0.35668
C         50.19175        35.94345        -0.74039
C         48.98417        35.22912        -0.45421
C         50.19392        37.38327        -0.80363
C         48.97217        38.11793        -0.68887
C         50.16962        40.28749        -0.82417
C         48.95485        39.54709        -0.69988
C         50.18688        41.72752        -0.68716
C         48.92959        42.42159        -0.46331
C         50.21963        44.37300        -0.12046
C         48.90370        43.84431        -0.13019
C         51.11541        29.43389        -0.97230
C         52.44994        31.63549        -1.22557
C         51.30514        30.83829        -0.96159
C         52.42414        32.88544        -1.16896
C         51.35424        33.77102        -0.90611
C         52.51253        36.01810        -1.17795
C         51.38921        35.17794        -0.93777
C         52.51794        37.26643        -1.20239
C         51.40106        38.13010        -1.02815
C         52.49983        40.40650        -1.13080
C         51.39006        39.53864        -1.02631
C         52.57387        41.65069        -0.99941
C         51.44043        42.45521        -0.72078
C         51.30727        43.83996        -0.42889
O         33.14512        36.61610        -1.83951
O         40.64483        43.69243         2.06563
O         45.48649        32.67401         2.07300
O         38.11486        45.69862        -0.70123
O         44.92140        29.37703         2.53117
O         36.79949        31.30922         1.91605
O         45.98335        35.90669         1.33547
O         33.72704        35.01135         1.43306
O         38.03341        29.26173         2.41508
O         46.27617        43.48791        -1.38308
O         42.69659        37.16592        -2.17849
H         41.89237        36.62363        -2.39029
O         36.04811        33.92954         2.08015
H         35.12768        34.35316         2.07341
O         38.95686        39.55435         1.39854
H         38.12419        39.14144         1.70998
O         37.81209        39.75808        -2.08608
H         37.17786        40.33833        -2.55833
O         40.28057        35.64183        -2.06751
H         39.47123        36.07464        -2.41759
O         38.23318        42.19622        -1.86838
H         38.97861        41.62595        -2.19728
O         38.47153        41.95887         1.78421
H         39.17934        42.28531         2.38656
O         46.40173        38.01092        -2.30224
H         45.53902        38.38728        -2.58348
O         40.23453        40.40425        -1.93361
H         41.14764        40.61704        -2.22265
O         32.27049        34.19572        -2.85587
H         32.41898        35.17167        -2.87214
