         288
 CSIRO Nanostructure Databank - Neutral Graphene Oxide Data Set
C        -11.22051         0.58530         0.30971
C        -10.07963         1.43984        -0.20425
C         -8.76942         0.68630        -0.02781
C         -7.51527         1.47914        -0.22534
C         -6.33597         0.74848        -0.87330
C         -4.98062         1.46980        -0.82910
C         -3.71577         0.68963        -0.64335
C         -2.43496         1.40517        -0.31408
C         -1.16162         0.61701        -0.39639
C          0.19200         1.30067        -0.25164
C          1.29306         0.68145        -1.17584
C          2.63559         1.35187        -0.75708
C          3.90948         0.68725        -1.25976
C          5.14557         1.34434        -0.67351
C          6.44714         0.62133        -0.77947
C          7.72128         1.42088        -0.73662
C          8.90460         0.67814        -0.22081
C          9.86180         1.44835         0.68766
C         11.12395         0.63690         0.88955
C         -9.93036         2.81950         0.42223
C         -8.79798         3.54703         0.29663
C         -7.62664         2.98255        -0.50802
C         -6.25523         3.60290        -0.15140
C         -5.02745         3.02084        -0.86539
C         -3.68168         3.67858        -0.45174
C         -2.39861         2.90609        -0.33736
C         -1.10454         3.51540         0.25242
C          0.06077         2.81856        -0.46512
C          1.27121         3.58824        -0.87998
C          2.61477         2.87093        -1.16183
C          3.82191         3.58460        -0.54534
C          5.11903         2.84116        -0.40744
C          6.39109         3.61157        -0.37714
C          7.68870         2.95290        -0.77041
C          8.90301         3.61186        -0.12597
C         10.00620         2.89275         0.27164
C         -8.67239         4.91720         0.95744
C         -7.54543         5.76363         0.32052
C         -6.21751         5.01877         0.32502
C         -4.95840         5.81217         0.24963
C         -3.69303         5.01890         0.23715
C         -2.37924         5.69021         0.51014
C         -1.10639         5.03088         0.08649
C         -0.00191         5.74494        -0.26795
C          1.26466         5.08371        -0.70732
C          2.56400         5.82189        -0.57529
C          3.87048         5.07843        -0.67489
C          5.14447         5.75503        -0.31558
C          6.39683         4.96805        -0.20542
C          7.64071         5.73730        -0.11248
C          8.86356         5.04259        -0.05692
C         -7.39272         7.13967         0.89904
C         -6.24446         7.96149         0.37663
C         -4.94629         7.16533         0.33967
C         -3.63723         7.91181         0.22619
C         -2.38493         7.19003         0.79481
C         -1.30473         7.95611         0.02402
C          0.01032         7.23646        -0.19892
C          1.30484         7.92031         0.15046
C          2.56306         7.09951         0.21735
C          3.86458         7.76167         0.59782
C          5.13240         7.14471         0.16110
C          6.33805         7.84371         0.18479
C          7.56781         7.14716         0.00931
C         -6.08039         9.27401         1.10078
C         -4.89578         9.91100         1.20341
C         -3.64399         9.33130         0.75396
C         -2.45813        10.00983         0.84022
C         -1.18112         9.36131         0.58396
C          0.01023         9.96452         0.84858
C          1.29951         9.19142         0.98782
C          2.58310         9.94935         0.77038
C          3.87336         9.21919         1.08345
C          5.13074         9.94111         0.65214
C          6.27709         9.29736         0.35418
C        -11.15456        -0.76377         0.34858
C         -9.94987        -1.51821        -0.03201
C         -8.78200        -0.78718        -0.21630
C         -7.56379        -1.46030        -0.75889
C         -6.29860        -0.69704        -0.29034
C         -5.00885        -1.51720        -0.45200
C         -3.69287        -0.77845        -0.19694
C         -2.50673        -1.49188        -0.88328
C         -1.19215        -0.77749        -0.96057
C          0.10618        -1.51645        -1.13249
C          1.29483        -0.84813        -1.16981
C          2.56925        -1.57470        -1.66347
C          3.90333        -0.79246        -1.48293
C          5.15204        -1.52878        -1.03754
C          6.53055        -0.86400        -1.21473
C          7.56300        -1.57091        -0.33718
C          8.88899        -0.85929        -0.14000
C          9.69664        -1.39514         1.05348
C         11.03873        -0.68929         1.08888
C         -9.93364        -2.94686        -0.12563
C         -8.74474        -3.69707        -0.36222
C         -7.51377        -2.97396        -0.57292
C         -6.39983        -3.50990        -1.24060
C         -5.05727        -2.96406        -0.87554
C         -3.77326        -3.75600        -1.00060
C         -2.49150        -2.99232        -0.74597
C         -1.18547        -3.72076        -0.79999
C         -0.02934        -2.98633        -1.50783
C          1.32923        -3.79973        -1.52365
C          2.53384        -2.96501        -0.96382
C          3.84580        -3.76770        -1.08896
C          5.10814        -3.00613        -0.79566
C          6.40107        -3.76027        -0.61370
C          7.53780        -2.93527        -0.10606
C          8.69864        -3.60344         0.47886
C          9.74968        -2.89701         0.97863
C         -8.72388        -5.11776        -0.18503
C         -7.55832        -5.91039         0.07835
C         -6.21053        -5.29664         0.40072
C         -5.08697        -5.99932        -0.39638
C         -3.78504        -5.22615        -0.69107
C         -2.47075        -5.91015        -0.27878
C         -1.21943        -5.22147        -0.83178
C         -0.04265        -5.90081        -0.80122
C          1.23429        -5.12411        -0.74853
C          2.50280        -5.86068        -0.46942
C          3.83055        -5.25159        -0.85880
C          5.09829        -6.09026        -0.59126
C          6.37581        -5.25121        -0.39048
C          7.46772        -5.83696         0.44327
C          8.80026        -5.11465         0.41525
C         -7.49944        -7.29402         0.15099
C         -6.27751        -7.96377         0.77842
C         -4.94138        -7.32149         0.36079
C         -3.72547        -8.10390         0.03039
C         -2.59029        -7.39981        -0.71814
C         -1.27207        -8.16999        -0.55812
C          0.00614        -7.38654        -0.62057
C          1.25074        -7.97757        -0.05790
C          2.42830        -7.29413        -0.10559
C          3.68000        -7.99886         0.37693
C          4.87842        -7.04860         0.59025
C          6.13787        -7.90345         0.89455
C          7.31666        -6.98568         1.13589
C         -6.18355        -9.47725         0.69370
C         -5.05582       -10.17653         0.47982
C         -3.79223        -9.60654        -0.13195
C         -2.45825       -10.18051         0.31890
C         -1.29906        -9.52587         0.07617
C          0.04328       -10.23354         0.19934
C          1.20060        -9.31962         0.55293
C          2.20838        -9.71870         1.36829
C          3.34743        -8.75943         1.67446
C          4.60179        -9.35206         2.27282
C          5.83264        -8.89590         1.99895
O          9.35580        -1.38181        -1.36725
O         -0.58660        -3.04874        -2.90429
O          4.66543         5.62546        -1.76193
O          0.79344         7.98365        -1.19159
O         -6.10287         3.88126         1.26244
O         -2.09498        -0.90495        -2.12850
O          2.44809        -1.75625        -3.08667
H          2.81723        -0.94375        -3.50919
O         -1.85696         0.82453         0.87726
O          7.80305         3.30082        -2.18658
H          8.47918         2.69369        -2.56936
O         -3.06981         4.94866         1.58730
O          3.94712         9.18827         2.54370
H          3.26888         8.52545         2.82543
O          0.21595         3.22717        -1.83996
O         -3.70496        -4.73044        -2.06789
O         -5.23219         3.37762        -2.24850
H         -4.40551         3.13455        -2.72917
O          4.93803        -2.05823         0.31562
O         -7.69953        -1.41047        -2.22303
H         -8.19906        -0.60225        -2.47725
O          6.53897        -8.71194        -0.23753
H          6.59064        -8.12515        -1.02652
O         -2.93614        -7.41334        -2.12311
H         -2.08325        -7.40630        -2.62437
O          5.72848         0.67702         0.49335
O         -3.93318        -7.56220         1.37212
O         -7.95364         1.15903         1.10860
O         -1.72847        -3.27857         0.49198
O          3.11702         6.88130         1.54215
O          8.81236         1.03456        -1.63260
O         -6.68538         0.78434        -2.27365
H         -5.87632         0.56298        -2.79126
O         -3.34087         7.94749        -1.21371
O          1.79250        -5.10275         0.59902
O         -0.48965        -8.14149        -1.81091
O         -4.18984         0.95680        -1.97870
O          6.80860        -4.68103        -1.67544
O          2.83440        -7.83571         2.68534
H          2.03538        -7.39703         2.31872
O         -5.60926        -6.49041        -1.65462
H         -4.83616        -6.72271        -2.22255
O          1.28609         8.71273         2.38879
H          1.18369         9.50081         2.96428
O         -0.19994        -1.88476        -3.67467
H          0.80139        -1.87998        -3.61846
O         -1.87740         8.09278        -1.32965
O         -5.11135        -2.58660         0.54537
O         -2.75109         3.56783        -1.58095
O          2.89357         1.18258         0.63465
H          2.19824         1.58908         1.19962
O         -5.98110        -4.64498         1.39985
O         -0.99450         3.22891         1.65422
H         -1.75140         3.67711         2.10448
O         -2.27695        -5.84449         1.13844
H         -2.08226        -4.90462         1.37243
O         -8.45436         4.76614         2.35935
H         -7.64318         4.22070         2.47591
O         -7.87873         5.91903        -1.10748
H         -8.77824         6.30605        -1.16802
O          4.07781         0.15900        -2.59284
O          2.28593        -2.68843         0.41905
H          3.11715        -2.33391         0.81853
O         -6.48154        -4.40451        -2.21955
H         -7.41044        -4.68183        -2.35691
O          4.26618         3.17084         0.76536
O          1.87187         5.78834        -1.84957
O         -6.35370        -0.53221         1.13385
H         -6.29312        -1.42443         1.54199
O         -3.92156        -9.91277        -1.54895
H         -3.40911        -9.24338        -2.06121
O          3.90919        -4.68475        -2.20653
O          4.64296        -6.16873         1.70492
H          4.12469        -6.65687         2.39601
O          0.54495         1.07173         1.12364
H         -0.25361         1.28809         1.66656
O         -6.57494         8.31212        -1.00981
H         -6.84506         7.47294        -1.45825
O          8.95309        -1.06903         2.27524
H          9.42287        -1.47545         3.03329
O          6.95194        -0.98520        -2.57047
H          7.94861        -1.02491        -2.54631
O        -10.29228         1.61764        -1.63232
H         -9.59144         2.23530        -1.96133
O          1.60828        -4.18215        -2.86916
H          0.81530        -3.98184        -3.42289
O          0.31683       -10.82474        -1.08300
H          0.32945       -10.09350        -1.74094
O          9.19568         1.57747         1.98081
H          8.97834         0.66281         2.30417
O         -7.93105         3.20012        -1.89819
H         -7.10304         3.06145        -2.42116
O         -6.42396        -7.68711         2.20146
H         -5.52072        -7.71922         2.59208
O          1.00334         0.94367        -2.55488
H          1.49644         1.74389        -2.86711
O         -2.22773         7.39023         2.19542
H         -2.69646         6.65661         2.65323
O          2.81675         2.93212        -2.59272
H          2.66485         3.86041        -2.88494
O          9.66892        -5.60211         1.43690
H          9.26455        -5.40258         2.30575
O          3.99807        -8.99966        -0.60374
H          4.40435        -8.54899        -1.37869
O          5.30742        -6.87422        -1.78842
H          5.42570        -6.22311        -2.52035
O         -3.51346        -0.79606         1.22217
H         -3.82067        -1.66895         1.55711
H         11.94832        -1.28721         1.25883
H         12.09875         1.14813         0.92039
H         10.90924         3.43555         0.59830
H          9.78540         5.59343         0.18901
H          8.50552         7.72200         0.04717
H          7.19624         9.87004         0.15824
H          5.12767        11.03821         0.73611
H          2.57329        11.02872         1.00335
H          0.00812        11.00217         1.22143
H         -2.44864        11.04395         1.21840
H         -4.84719        10.90298         1.67935
H         -6.99532         9.75930         1.47234
H         -8.32225         7.68523         1.13774
H         -9.64011         5.47252         0.83454
H        -10.78285         3.23878         0.98095
H        -12.15663         1.09049         0.59394
H        -12.03241        -1.34180         0.67629
H        -10.86105        -3.49316         0.10591
H         -9.69798        -5.63208        -0.13290
H         -8.39065        -7.90614        -0.06150
H         -7.07725       -10.02103         1.04071
H         -5.09065       -11.27459         0.56503
H         -2.42491       -11.20374         0.72623
H         -0.02889       -11.06635         0.94177
H          2.16190       -10.69467         1.87580
H          4.46650       -10.12445         3.04715
H          6.69882        -9.34778         2.50891
H          8.17452        -7.37253         1.70983
H          9.28480        -5.37090        -0.56738
H         10.61169        -3.43643         1.40230
