         288
 CSIRO Nanostructure Databank - Neutral Graphene Oxide Data Set
C        -11.05597         0.66047        -0.77603
C         -9.86762         1.41725        -0.40893
C         -8.57124         0.63774        -0.18295
C         -7.54929         1.42055         0.66506
C         -6.27945         0.68396         1.08872
C         -4.96219         1.51299         1.23922
C         -3.68243         0.65402         1.09538
C         -2.30636         1.38912         0.96556
C         -1.24981         0.75044         0.05424
C          0.07578         1.38994         0.58046
C          1.33144         0.63431         0.26124
C          2.49386         1.44337        -0.23216
C          3.79718         0.69866        -0.30958
C          5.09342         1.42102        -0.27217
C          6.32662         0.78919        -0.85783
C          7.60135         1.53778        -0.70655
C          8.91258         0.76614        -0.81647
C         10.13778         1.54256        -0.35688
C         11.35278         0.72687        -0.34169
C         -9.83458         2.76731        -0.51938
C         -8.51898         3.50449        -0.56572
C         -7.51647         2.88834         0.42017
C         -6.19618         3.59873         0.35279
C         -4.91840         2.84172         0.48388
C         -3.64174         3.66679         0.54370
C         -2.27792         2.97881         0.57844
C         -1.17797         3.62787         1.42696
C          0.13529         2.91277         0.92629
C          1.31115         3.69679         0.41467
C          2.44657         2.94065        -0.24830
C          3.77198         3.67061        -0.36481
C          5.06703         2.92224        -0.37923
C          6.35674         3.67152        -0.17072
C          7.65159         2.94613        -0.22276
C          8.88907         3.66922        -0.72670
C         10.13026         2.90723        -0.30312
C         -8.69742         5.01658        -0.32280
C         -7.40318         5.80677        -0.12499
C         -6.24029         5.09823         0.49133
C         -4.99974         5.87186         0.82172
C         -3.67722         5.14636         0.76663
C         -2.44625         5.92003         1.21570
C         -1.11455         5.17552         1.32514
C          0.15175         5.91102         0.96752
C          1.14202         5.18523         0.03791
C          2.48358         5.92789        -0.17285
C          3.78641         5.18329        -0.22177
C          5.13122         5.73401         0.36777
C          6.31158         5.15405        -0.45829
C          7.64146         5.86091        -0.35682
C          8.81288         5.16150        -0.45384
C         -7.36894         7.14343        -0.33307
C         -6.23673         8.02066         0.17674
C         -4.93414         7.24435         0.20029
C         -3.61902         7.93535         0.03875
C         -2.45641         7.37985         0.82237
C         -1.17423         8.17814         0.85120
C          0.11736         7.42714         0.94237
C          1.40002         8.16027         0.70546
C          2.55802         7.40636         0.12648
C          3.56068         8.25604        -0.61523
C          5.36164         7.24023         0.67884
C          6.38883         7.99937        -0.09499
C          7.54842         7.32108        -0.39222
C         -6.06797         9.35284        -0.51695
C         -4.89286         9.96600        -0.72427
C         -3.51745         9.35859        -0.52564
C         -2.52276        10.24876         0.25276
C         -1.15253         9.58285         0.34345
C          0.02471        10.23396         0.17516
C          1.33499         9.69538         0.75150
C          2.64799        10.33736         0.33080
C          3.73868         9.63953        -0.09473
C          5.09530        10.18037        -0.19518
C          6.24774         9.44702        -0.23546
C        -11.11144        -0.68393        -0.78283
C        -10.08327        -1.56702        -0.12793
C         -8.83813        -0.78716         0.34992
C         -7.63590        -1.56489         0.80645
C         -6.30501        -0.84099         1.11018
C         -5.02201        -1.70723         1.30833
C         -3.70210        -0.86633         1.05055
C         -2.36713        -1.61766         0.71000
C         -1.24073        -0.79751         0.00109
C          0.03846        -1.54020        -0.29217
C          1.38577        -0.89155        -0.02268
C          2.45666        -1.39780        -0.97659
C          3.78296        -0.66274        -0.94996
C          5.07912        -1.38659        -1.16360
C          6.46591        -0.73628        -1.04768
C          7.38940        -1.26805         0.08379
C          8.79211        -0.60365        -0.08384
C         10.06868        -1.37750        -0.07182
C         11.31431        -0.62916        -0.37677
C         -9.66407        -2.78357        -0.97095
C         -8.76886        -3.69855        -0.17623
C         -7.63749        -3.06202         0.58097
C         -6.33850        -3.80920         0.52056
C         -5.01620        -3.11657         0.68992
C         -3.78857        -3.75651         0.11435
C         -2.54634        -2.89379        -0.16211
C         -1.19673        -3.78137        -0.06853
C          0.07461        -3.03121        -0.42455
C          1.18948        -3.65446        -0.89719
C          2.42558        -2.87340        -1.25740
C          3.73194        -3.60792        -1.02520
C          5.07248        -2.88714        -1.11368
C          6.27493        -3.56296        -0.50931
C          7.46041        -2.81685         0.13562
C          8.80789        -3.49604        -0.02174
C         10.00135        -2.85422         0.01329
C         -8.82775        -5.05041        -0.33518
C         -7.62736        -5.86269        -0.10708
C         -6.41360        -5.00682        -0.42991
C         -5.13689        -5.84714        -0.56777
C         -3.89099        -5.01931        -0.80004
C         -2.61667        -5.84615        -0.41768
C         -1.38667        -5.04966        -0.94105
C         -0.09198        -5.87358        -1.05152
C          1.20426        -5.13565        -1.14551
C          2.51718        -5.89645        -1.06502
C          3.73780        -5.09101        -0.75229
C          5.09800        -5.81094        -0.78547
C          6.06996        -4.96600         0.07751
C          7.43094        -5.65503         0.36035
C          8.35171        -4.56264         0.95631
C         -7.57268        -7.19110         0.16022
C         -6.28039        -7.93880         0.45291
C         -5.08647        -7.31219        -0.25406
C         -3.80485        -8.03546        -0.30848
C         -2.59206        -7.36021        -0.64953
C         -1.37923        -8.02396        -0.48743
C         -0.09336        -7.27837        -0.52437
C          1.21586        -8.00450        -0.37706
C          2.52867        -7.37287        -0.79951
C          3.79574        -8.08235        -0.35207
C          5.16650        -7.32076        -0.29996
C          5.95264        -7.57119         0.99294
C          7.07421        -6.83210         1.25714
C         -6.29406        -9.42176         0.14484
C         -5.15328       -10.10665        -0.07506
C         -3.83304        -9.46165        -0.13443
C         -2.64655       -10.15546        -0.06034
C         -1.33790        -9.42519         0.08831
C         -0.10112       -10.21557        -0.39945
C          1.18860        -9.47126        -0.09375
C          2.28139       -10.02080         0.47961
C          3.61581        -9.34167         0.44314
C          4.63745        -9.63392         1.47474
C          5.66457        -8.79167         1.73860
O         -4.11917        -3.98745         1.48961
O          0.47105         5.22863        -1.23768
H          1.06725         4.85612        -1.92430
O         -0.81548        -1.11422        -1.37444
O          6.11784        -3.47257        -1.93818
O         -6.49251        -0.03889         2.33004
O         -7.99070         0.55355        -1.46223
O          7.08652         3.32148         1.04885
O          2.48018         7.67258         1.55448
O         -2.80946         6.93304         2.18172
O          0.51571        -5.63490        -2.35201
O          4.57200         0.81562         0.93338
O          2.15232        -1.89706        -2.30437
O         -5.50982         2.99999        -0.82143
O          2.12460         2.18853        -1.44719
O         -5.93856         5.58864         1.87738
O         -1.49033         1.14463        -1.29508
H         -1.09717         0.47606        -1.90552
O         -3.59436         4.61157        -0.57853
O         -0.50515         8.00075         2.14131
O          0.62058        -7.30566         0.78975
O        -10.76235        -2.12162         1.02370
H        -10.20547        -1.92127         1.81584
O         -6.55658        -4.41749        -1.71307
O          4.02063        -9.37255        -0.98374
O         -4.16856         7.10170        -1.04064
O          9.49008        -0.70772         1.17709
O          2.63547        -6.85887        -2.15145
O         -1.80309        -1.93665         1.99503
H         -2.16663        -1.28271         2.64301
O         -7.16315        -3.88059         1.71032
O         -3.55714        -0.15090         2.30843
O         -5.32946        -6.82339        -1.61686
O          4.43203         3.32066        -1.65282
O         -1.68280        -4.61443        -2.26756
H         -0.85815        -4.68310        -2.80914
O          3.50793        -4.16624         0.33278
O         -2.79895        -2.38104        -1.47139
H         -2.92031        -3.14787        -2.09356
O          7.09194        -1.02138        -2.29167
H          7.80750        -0.34498        -2.49541
O          6.84385        -0.79338         1.31647
H          7.50217        -0.99887         2.01808
O          3.15422         5.67208        -1.44360
O          7.51388        -3.44266         1.52876
O          9.17348         0.59852        -2.19776
O          5.45246        -4.89947         1.38455
H          5.93874        -4.22885         1.91908
O         -4.00362        -4.62481        -2.16811
H         -4.98969        -4.51389        -2.34275
O          4.93622         7.67351         1.73416
O          4.14854         7.88661        -1.62374
O         -8.03717         2.37534         1.67331
O         -8.87917        -2.36188        -2.08948
H         -8.21194        -3.05966        -2.28954
O         -1.37339         3.43998         2.82498
H         -0.60468         3.85105         3.28089
O         -4.93328         1.98505         2.60645
H         -5.32065         1.27048         3.16500
O          6.07740        -7.96156        -1.16764
O          1.23585         3.29470         1.80769
O         -2.97905        10.48638         1.58371
H         -2.93836         9.65581         2.10253
O         -1.69444         3.27686        -0.70154
H         -2.36071         3.16269        -1.41358
O         -0.10225         5.52749         2.33461
O          8.80647         3.53098        -2.19697
H          8.95769         2.56203        -2.41968
O          5.17825         5.10548         1.65577
H          4.95166         5.79121         2.33008
O         -8.63203        -1.03397         1.75703
O          6.96129         5.33153        -2.85914
H          7.53506         4.50380        -2.65864
O          6.83722         1.55025        -1.97891
O         -1.17475        -9.23401         1.52783
H         -0.53148        -8.49079         1.65567
O          4.38698        -0.73645        -2.27122
O          5.87879         5.36116        -1.94160
H          5.22654         4.58353        -2.17430
O         -7.97837         3.31509        -1.88714
H         -7.89314         2.32855        -2.02072
O         -1.70979         1.21005         2.25008
H         -2.33103         1.51570         2.94548
O         -2.91459         9.23317        -1.83682
H         -3.40967         8.52442        -2.30795
O          8.07090        -6.15080        -0.81822
H          7.51739        -6.92025        -1.13862
O          0.84348         0.74446         1.63359
O         -6.55257         8.32956         1.56237
H         -6.65733         7.47106         2.03736
O         -6.04111        -7.83446         1.88511
H         -6.21644        -6.91173         2.16835
O          5.45664        -5.82795        -2.16210
H          5.84498        -6.72664        -2.34232
O         -9.48605         5.19087         0.86450
H         -9.09641         4.64771         1.58239
O          1.83621        -1.49238         1.22235
H          1.41814        -1.00162         1.96823
O         -2.69579        -5.97864         1.01926
H         -2.19641        -5.26485         1.49229
O         -0.22418       -10.36377        -1.81493
H          0.60839       -10.73704        -2.17096
O         -0.92227        -4.21745         1.28116
H         -0.97961        -3.43500         1.88564
O         -5.00342        -2.02848         2.70583
H         -5.34960        -1.25395         3.20303
O          1.26717        10.05688         2.15671
H          0.62401         9.43900         2.58605
H         12.24745        -1.20326        -0.48112
H         12.31958         1.24815        -0.41818
H         11.06195         3.46732        -0.12885
H          9.75910         5.72488        -0.43009
H          8.43141         7.87799        -0.74294
H          7.18978         9.99713        -0.39126
H          5.18948        11.27725        -0.23419
H          2.77559        11.38532         0.64832
H          0.00917        11.29038        -0.13603
H         -2.43659        11.23727        -0.25787
H         -4.89404        10.96584        -1.18714
H         -6.99693         9.89219        -0.76096
H         -8.26062         7.64690        -0.73941
H         -9.27467         5.46203        -1.16978
H        -10.75776         3.32420        -0.74377
H        -11.90339         1.24172        -1.17317
H        -12.01938        -1.18994        -1.14435
H        -10.58217        -3.33831        -1.31743
H         -9.70610        -5.50851        -0.81747
H         -8.50908        -7.74262         0.34403
H         -7.25419        -9.95745         0.19244
H         -5.18292       -11.19831        -0.21213
H         -2.65328       -11.24921         0.06621
H         -0.08021       -11.22612         0.09933
H          2.26728       -11.07799         0.79360
H          4.50356       -10.53853         2.08733
H          6.36258        -9.04521         2.55256
H          7.71924        -7.09796         2.11162
H          9.10258        -4.93226         1.69273
H         10.91972        -3.41128         0.25771
