         404
 CSIRO Nanostructure Databank - Neutral Graphene Oxide Data Set
C          1.14737         3.47311         1.22823
C         -0.06039         4.18307         1.21537
C          1.15527         6.26694         0.87194
C         -0.05542         5.56216         1.05741
C          1.17649         7.71231         0.71543
C          0.01899         8.49293         0.94297
C          1.20660        10.55098         0.39793
C          0.03712         9.86954         0.81937
C          1.23643        12.00109         0.23155
C          0.09981        12.76515         0.50268
C          1.25449        14.86454         0.02189
C          0.10257        14.15787         0.39100
C          1.24509        16.30788        -0.07456
C          0.04261        17.05092         0.04425
C          1.23314        19.16081        -0.24435
C          0.03309        18.42590        -0.05745
C          1.23696        20.58842        -0.36954
C          0.00266        21.34231        -0.40033
C          1.22455        23.42560        -0.84129
C         -0.02330        22.67459        -0.65058
C          1.21383        24.95589        -0.90180
C         -0.04609        25.71790        -0.86602
C          1.14248        27.78493        -0.27426
C         -0.06326        27.04143        -0.58637
C          1.12318        29.14225         0.02253
C         -0.08131        29.92645        -0.02757
C          1.15051        32.04940         0.11360
C         -0.07907        31.29017         0.04766
C          1.16512        33.47025         0.06499
C         -0.04722        34.26468        -0.10416
C          1.15751        36.31218         0.61637
C         -0.05878        35.59986         0.08674
C          1.19174        37.79313         0.33387
C          3.62707         3.32048         1.13888
C          2.36151         4.13734         1.05421
C          3.62555         6.22984         0.58495
C          2.37929         5.54043         0.84321
C          3.61795         7.61640         0.26277
C          2.37863         8.37280         0.34035
C          3.53087        10.45545        -0.44535
C          2.36022         9.78136         0.13858
C          3.58558        11.93000        -0.49665
C          2.44640        12.67812        -0.19598
C          3.63686        14.84431        -0.58307
C          2.46157        14.13698        -0.27140
C          3.68118        16.28393        -0.50960
C          2.46042        17.00975        -0.28894
C          3.69953        19.14302        -0.44940
C          2.46525        18.43815        -0.33071
C          3.71020        20.56940        -0.45813
C          2.46817        21.28049        -0.46815
C          3.68450        23.41330        -0.39696
C          2.49142        22.71427        -0.53146
C          3.59946        24.86601         0.03998
C          2.43304        25.66629        -0.49443
C          3.63502        27.76510        -0.13528
C          2.40256        27.04462        -0.26719
C          3.65915        29.14165         0.14110
C          2.36540        29.83754         0.54157
C          3.58579        32.02004         0.25989
C          2.36902        31.32935         0.24839
C          3.61281        33.42668         0.13813
C          2.40654        34.16465         0.11044
C          3.60623        36.33348         0.11034
C          2.43172        35.61526         0.19636
C          3.64046        37.78049         0.24475
C          2.35593        38.47083         0.25403
C          6.08742         3.39987         0.82655
C          4.89233         4.08675         0.83953
C          6.08268         6.19024         0.38132
C          4.85538         5.50416         0.59637
C          6.07664         7.59575         0.11031
C          4.84234         8.27634        -0.02631
C          6.10885        10.39951        -0.70109
C          4.81067         9.65378        -0.57117
C          6.13300        11.88121        -0.94670
C          4.80134        12.58882        -1.02715
C          6.15166        14.81197        -1.12468
C          4.82304        14.10228        -1.05676
C          6.15146        16.30609        -0.97155
C          4.88603        17.00544        -0.67486
C          6.17197        19.13652        -0.62508
C          4.92578        18.42173        -0.56667
C          6.17755        20.55945        -0.59536
C          4.94119        21.27952        -0.50876
C          6.17988        23.40573        -0.41435
C          4.94278        22.71222        -0.40680
C          6.20469        24.86836        -0.24229
C          4.92505        25.61528        -0.04332
C          6.16958        27.77110        -0.27498
C          4.88484        27.04363        -0.56920
C          6.15011        29.15192         0.03644
C          4.88408        29.83181         0.22593
C          6.13520        32.04328         0.61878
C          4.84766        31.28071         0.52269
C          6.16446        33.47767         0.25666
C          4.89525        34.12126        -0.06721
C          6.14143        36.36399         0.05894
C          4.88239        35.65430        -0.16516
C          6.12080        37.78712         0.22709
C          4.84000        38.46057         0.27714
C          8.56592         3.37286         0.60457
C          7.33877         4.06568         0.61634
C          8.55258         6.17395         0.24477
C          7.32160         5.48068         0.42149
C          8.53849         7.61548         0.10593
C          7.32847         8.29842         0.01713
C          8.54385        10.51258        -0.29577
C          7.26295         9.80688         0.07349
C          8.54281        11.99782        -0.27684
C          7.36619        12.67629        -0.60748
C          8.60899        14.81116        -0.64927
C          7.40045        14.09277        -0.77319
C          8.63578        16.27674        -0.72252
C          7.42321        17.00290        -0.71217
C          8.65540        19.12849        -0.74258
C          7.41855        18.41905        -0.66681
C          8.62589        20.54481        -0.82699
C          7.41692        21.27206        -0.71083
C          8.60330        23.47500        -0.82983
C          7.40847        22.72352        -0.66330
C          8.59612        24.90647        -0.82056
C          7.42000        25.62456        -0.59548
C          8.60886        27.80001        -0.41374
C          7.39311        27.07090        -0.45130
C          8.61303        29.18234        -0.09968
C          7.39192        29.84542         0.17136
C          8.68265        32.05837         0.31431
C          7.41981        31.27533         0.54584
C          8.62731        33.52597         0.11570
C          7.35461        34.19935         0.12834
C          8.59082        36.36524         0.04083
C          7.35112        35.64888         0.02792
C          8.58167        37.79805         0.18606
C          7.33191        38.47839         0.29960
C         11.04546         3.35455         0.35183
C          9.78936         4.05340         0.40627
C         11.03282         6.18611        -0.13536
C          9.76851         5.46738         0.24541
C         11.01133         7.64918         0.21620
C          9.80528         8.31742         0.17093
C         10.96958        10.56023         0.43328
C          9.80912         9.77993        -0.05339
C         10.99619        12.01041         0.19332
C          9.78431        12.69470        -0.13593
C         11.07564        14.78292        -0.29348
C          9.82143        14.09992        -0.35772
C         11.09968        16.12361        -1.00515
C          9.86856        16.97843        -0.76379
C         11.14140        19.12982        -0.96537
C          9.90462        18.40092        -0.84541
C         11.17449        20.55318        -0.93395
C          9.88191        21.25480        -1.11971
C         11.14787        23.46097        -0.89979
C          9.86674        22.76847        -1.13648
C         11.15815        24.91444        -1.09352
C          9.84768        25.65121        -1.11679
C         11.14435        27.81628        -0.51955
C          9.86202        27.13944        -0.82489
C         11.11623        29.22246        -0.29889
C          9.87090        29.91776        -0.14937
C         11.09199        32.04432        -0.27306
C          9.89180        31.31795        -0.08465
C         11.03052        33.50072        -0.47005
C          9.79126        34.23124        -0.14400
C         11.06118        36.38305        -0.08471
C          9.81821        35.67034        -0.10654
C         11.04818        37.80426         0.15541
C          9.80898        38.48432         0.25961
C         13.52152         3.34568         0.18338
C         12.27516         4.02897         0.27188
C         13.49295         6.18072         0.32144
C         12.29949         5.47213         0.24001
C         13.45896         7.63159         0.37704
C         12.26870         8.33737         0.37519
C         13.48373        10.59212         0.61325
C         12.25206         9.79822         0.66306
C         13.44891        11.97117         0.57906
C         12.20854        12.70293         0.35562
C         13.48688        14.87902         0.36215
C         12.23853        14.10996         0.08957
C         13.53762        16.30950        -0.08592
C         12.41037        16.89922        -0.87451
C         13.70699        19.12931        -0.77023
C         12.42034        18.38807        -1.00654
C         13.67192        20.63546        -0.70607
C         12.35295        21.31411        -0.75966
C         13.52423        23.49039        -0.22787
C         12.33236        22.75681        -0.67194
C         13.55568        24.87021        -0.20973
C         12.43698        25.66295        -0.76998
C         13.56269        27.82782        -0.22004
C         12.36319        27.12405        -0.49436
C         13.55689        29.21863        -0.10230
C         12.33954        29.94574        -0.19365
C         13.55410        32.14924        -0.22893
C         12.33246        31.38336        -0.24938
C         13.58007        33.53682        -0.32858
C         12.32914        34.27974        -0.54147
C         13.53684        36.38844        -0.04928
C         12.30967        35.71487        -0.21283
C         13.51240        37.79818         0.24362
C         12.28157        38.47925         0.31579
C         15.95184         3.36988        -0.20612
C         14.73332         4.04449         0.10004
C         15.98898         6.16307         0.27735
C         14.76277         5.48169         0.27931
C         16.02638         7.61056         0.61349
C         14.72487         8.35725         0.62804
C         16.02875        10.54393         0.26378
C         14.73231         9.82978         0.36671
C         16.04547        11.98488         0.64130
C         14.72423        12.72188         0.75634
C         15.98610        14.86468         0.65567
C         14.77427        14.18056         0.59397
C         15.93170        16.33589         0.55729
C         14.83071        17.02191        -0.00814
C         16.04173        19.16845         0.09651
C         14.87364        18.42117        -0.20234
C         16.01715        20.62329         0.14225
C         14.83375        21.30946        -0.10727
C         15.96636        23.43811         0.71876
C         14.68700        22.71461         0.28757
C         15.97348        24.93060         0.75026
C         14.70237        25.64788         0.32860
C         16.00267        27.82608         0.43986
C         14.86601        27.06140        -0.22149
C         16.09323        29.27021         0.17159
C         14.79807        29.95675         0.20200
C         16.08687        32.13947        -0.08457
C         14.80172        31.45719         0.12580
C         16.03711        33.53470        -0.25633
C         14.81389        34.27030        -0.23682
C         16.03573        36.44458        -0.11265
C         14.80500        35.70390        -0.16556
C         15.99139        37.84002         0.31764
C         14.74258        38.45585         0.49851
C         18.31242         3.41516        -0.91463
C         17.13373         4.07253        -0.40740
C         18.39041         6.19079        -0.37406
C         17.18982         5.49208        -0.13353
C         18.54720         7.60930         0.00124
C         17.32961         8.36209         0.48621
C         18.47154        10.54558         0.03970
C         17.33054         9.83418         0.30607
C         18.43610        12.01043        -0.05295
C         17.26802        12.74045         0.35196
C         18.54311        14.78703         0.30935
C         17.26814        14.13619         0.53211
C         18.82200        16.08367         0.79865
C         16.99435        17.14501         0.99975
C         18.45378        19.17358         0.84975
C         17.15830        18.49074         0.65073
C         18.48169        20.62365         0.60611
C         17.24537        21.32988         0.47844
C         18.47782        23.46597         0.56809
C         17.25401        22.73986         0.56438
C         18.48143        24.91988         0.59391
C         17.27344        25.62405         0.65540
C         18.54579        27.83339         0.61302
C         17.28438        27.08779         0.74468
C         18.53535        29.24769         0.47620
C         17.28388        29.96995         0.27961
C         18.55431        32.08789         0.05646
C         17.30913        31.41163         0.05715
C         18.62163        33.51096        -0.31628
C         17.27035        34.27334        -0.48484
C         18.52187        36.33691        -0.46570
C         17.25936        35.73228        -0.33145
C         18.44043        38.35244         0.33315
C         17.14195        38.58549         0.77069
C         19.42878         4.12457        -1.24402
C         20.59518         6.30651        -1.42896
C         19.49343         5.54698        -1.01664
C         20.66463         7.70861        -1.21335
C         19.68575         8.38617        -0.52091
C         20.82343        10.63131        -0.82991
C         19.82052         9.83230        -0.03801
C         20.69679        11.95724        -1.03223
C         19.56015        12.70935        -0.52681
C         20.68090        14.95104        -0.85216
C         19.59999        14.13892        -0.39798
C         20.73597        16.31402        -0.60258
C         19.81577        16.92532         0.29182
C         20.96386        19.20670         0.26718
C         19.82928        18.37062         0.65918
C         20.92607        20.56535         0.34564
C         19.70915        21.31507         0.55374
C         20.92175        23.50471         0.53501
C         19.71228        22.75712         0.52805
C         20.92573        24.88877         0.57336
C         19.73073        25.64115         0.59819
C         20.96828        27.83831         0.61454
C         19.75749        27.09751         0.61177
C         20.96539        29.22327         0.60909
C         19.76312        29.96484         0.51600
C         20.92264        32.19435         0.62296
C         19.76179        31.41833         0.40616
C         20.92543        33.58951         0.51381
C         19.81823        34.29693         0.02403
C         20.88223        36.57121         0.17387
C         19.77091        35.73039        -0.14010
C         20.82899        37.88584         0.66414
C         19.68805        38.65871         0.93049
O          9.75572        26.60776        -2.20590
O         18.04778        33.80714        -1.63225
O         16.36039        27.56025         1.81520
O         15.28362        10.20252        -0.96864
O          8.28663        31.62010         1.67779
O         14.03830        19.93149        -1.95445
O          4.56700        13.31807        -2.27176
O         14.68486        30.77550         1.43343
O         18.31301         7.88027         1.46092
O         12.72369        17.48600        -2.16817
O         15.01352        25.47162         1.72627
O          9.82476        22.00029        -2.39292
O          6.39518        10.90423        -2.01886
O         11.35966        10.15462         1.78549
O          3.94506         9.81263        -1.72246
O          6.21326        15.65878        -2.31293
O          5.39214        31.68980         1.84753
O         19.27466        18.72202         1.95226
O         12.09270        25.32618        -2.15544
O         15.35981         7.95349         1.88674
O         17.96871        16.54833         1.80649
O         13.14764        15.97713         1.30206
O          4.90772        34.82174        -1.36896
O          9.33601        10.03240        -1.42885
O         11.60315        33.92175        -1.76564
O          5.72326        25.37920         1.13806
O         15.04747        22.88752         1.70484
O         18.55337        37.66348        -0.89640
O         15.46285        12.25622         1.94996
O          1.33524        24.13752        -2.13157
O         10.98871        15.70815        -2.40150
H         11.39129        16.43103        -2.94110
O          6.98712        10.16141         1.46839
H          7.64340         9.70908         2.04031
O          4.80019        26.87496        -2.02662
H          4.76812        27.76463        -2.43680
O          3.53147         2.16339         0.28946
H          3.45515         2.47208        -0.63659
O         11.04894         6.17990        -1.62195
H         10.99920         5.24196        -1.90624
O          1.08134        36.19376         2.08348
H          1.86750        36.64795         2.45420
O         20.34236         9.73496         1.32022
H         19.73257         9.12912         1.80977
O          3.27850        24.75638         1.46883
H          4.14298        24.80882         1.94674
O          2.29079        29.72720         2.00226
H          3.07959        30.17920         2.37287
O         15.27713        26.92104        -1.61434
H         14.50514        26.61374        -2.13814
H          1.14757         2.38349         1.37037
H         -1.01180         3.64873         1.34351
H         -1.01341         6.09845         1.05837
H         -0.91667         8.00997         1.25383
H         -0.88618        10.42301         1.03255
H         -0.83314        12.28097         0.81757
H         -0.82627        14.69332         0.62522
H         -0.91375        16.53322         0.19304
H         -0.92901        18.94817         0.02112
H         -0.95182        20.81463        -0.27291
H         -0.98568        23.19640        -0.74220
H         -0.97900        25.20370        -1.13576
H         -1.02799        27.56646        -0.59311
H         -1.04625        29.41879        -0.16520
H         -1.03736        31.82451         0.00118
H         -0.97006        33.75896        -0.42329
H         -0.98649        36.17510        -0.05199
H          0.23483        38.33718         0.32836
H          3.70494         2.92028         2.18884
H          2.35957        39.56690         0.15231
H          6.08331         2.31248         0.99269
H          4.83469        39.55853         0.35218
H          8.57107         2.28165         0.74423
H          7.32928        39.57181         0.42187
H         11.03898         2.25578         0.40563
H          9.80916        39.57261         0.42201
H         13.52648         2.24790         0.10880
H         12.27872        39.56043         0.51971
H         15.93008         2.28299        -0.37633
H         14.71649        39.50585         0.82640
H         18.27169         2.32963        -1.08638
H         16.96938        39.34624         1.54740
H         20.30196         3.62230        -1.68473
H         21.42842         5.80747        -1.94337
H         21.55052         8.23788        -1.59055
H         21.74224        10.12888        -1.16380
H         21.49546        12.49990        -1.55809
H         21.47953        14.49671        -1.45371
H         21.54988        16.90558        -1.04463
H         21.88633        18.71566        -0.07524
H         21.84360        21.11843         0.10255
H         21.88786        22.98360         0.53024
H         21.89593        25.40262         0.58715
H         21.93525        27.31877         0.63718
H         21.92999        29.74839         0.63045
H         21.85078        31.70210         0.94315
H         21.84675        34.13071         0.77089
H         21.86948        36.08746         0.23301
H         21.78285        38.27978         1.05070
H         19.76136        39.47830         1.66013
