         275
 CSIRO Nanostructure Databank - Neutral Graphene Oxide Data Set
C         30.56205        31.90713        -1.85897
C         30.46894        33.11830        -1.61462
C         30.75656        36.37944        -1.36009
C         30.82079        37.62626        -1.28660
C         30.45931        40.67406        -0.10583
C         30.39617        41.86611         0.29169
C         32.93447        29.06413        -1.93243
C         31.81137        29.63166        -2.08042
C         32.81806        31.59167        -1.13993
C         31.65708        30.98325        -1.74017
C         32.82563        33.11739        -1.04190
C         31.43066        33.84800        -0.68783
C         32.94089        35.78996        -0.91770
C         31.64646        35.31143        -1.00891
C         33.06627        37.99013        -0.73262
C         31.74112        38.56675        -0.74377
C         32.68033        40.40241         0.63904
C         31.56866        39.80004        -0.07864
C         32.65765        41.73129         1.08244
C         31.47521        42.57074         0.86587
C         32.76955        44.39875         1.52448
C         31.64138        43.94205         1.19554
C         35.62696        27.39365        -1.63445
C         35.44758        28.85905        -1.54190
C         34.15035        29.53897        -1.44708
C         35.18163        31.45573        -0.09658
C         34.03763        30.87956        -0.97324
C         35.30806        32.99874        -0.27715
C         33.95931        33.68022        -0.18629
C         35.28279        35.93334         0.18759
C         34.01213        35.18482        -0.11213
C         35.25438        37.42710         0.33095
C         34.04040        38.26139         0.18750
C         35.18118        40.34305         0.68164
C         33.89550        39.53993         1.00174
C         35.22067        41.71804         1.33398
C         33.89322        42.29455         1.81892
C         35.22826        44.46867         2.03338
C         34.01304        43.83904         1.82384
C         35.46753        45.83661         1.90730
C         38.05482        27.34369        -1.26011
C         36.76917        26.89379        -1.66761
C         37.85926        28.66167        -0.47975
C         36.68311        29.53521        -0.99201
C         37.81346        31.62391        -0.15422
C         36.54926        30.84977        -0.36437
C         37.65949        32.90996         0.67832
C         36.30491        33.66447         0.70340
C         37.74940        35.86489         0.66514
C         36.39843        35.18898         0.49462
C         37.61103        37.31205         1.22747
C         36.37940        38.06337         0.78970
C         37.70030        40.26392         0.77879
C         36.39204        39.52839         1.18058
C         37.70520        41.59515         1.50829
C         36.40337        42.31574         1.64283
C         37.83709        44.31887         2.25035
C         36.47492        43.61963         2.43798
C         37.70112        46.48103         1.62849
C         36.31967        46.64905         1.42499
C         40.72665        24.99330        -2.22529
C         39.60023        25.53218        -2.07376
C         40.55714        27.51702        -1.12658
C         39.28398        26.80060        -1.49841
C         40.37595        28.66196        -0.13819
C         39.12011        29.46835        -0.39038
C         40.27318        31.53027         0.48037
C         38.98594        30.72023         0.42817
C         40.24562        32.90415         0.75061
C         38.94370        33.59978         1.04480
C         40.18964        35.87614         1.29852
C         38.85569        35.09000         1.46781
C         40.15701        37.33642         0.95504
C         38.87438        38.09132         0.93158
C         40.26217        40.12949         1.27697
C         38.93376        39.44040         1.02269
C         40.22729        41.63702         1.08962
C         39.02521        42.33767         1.54945
C         40.21532        44.74133         1.45273
C         38.96733        43.81745         1.67524
C         39.95152        45.94890         0.52604
C         38.71631        46.68510         0.66486
C         39.46566        48.15829        -1.09336
C         38.59772        47.69460        -0.32003
C         42.49499        24.34944        -0.58760
C         41.81216        25.27688        -1.33239
C         43.05756        27.36374        -0.40512
C         41.88744        26.75936        -1.10485
C         42.88539        28.65060         0.40429
C         41.63120        29.47457         0.09213
C         42.76329        31.52126         0.96447
C         41.53792        30.80900         0.41517
C         42.71383        33.02436         0.79971
C         41.46579        33.65090         0.83021
C         42.58993        35.81396         0.35880
C         41.51756        35.11459         1.19879
C         42.52702        37.26837        -0.01952
C         41.21688        38.03591         0.09693
C         42.66716        40.12212         0.45711
C         41.38063        39.46118         0.52969
C         42.72586        41.61740         0.67805
C         41.48092        42.35946         1.07801
C         42.54798        44.52224         0.24340
C         41.47242        43.90421         1.04588
C         42.31198        45.80489        -0.33504
C         40.99549        46.45011        -0.30833
C         41.94531        48.20335        -1.72299
C         40.79037        47.66872        -1.11266
C         43.11854        23.50005         0.10095
C         45.46687        27.48594         0.07265
C         44.34035        26.85306        -0.56070
C         45.38114        28.82848         0.61281
C         44.15922        29.46325         0.49725
C         45.26039        31.71740         0.88151
C         44.06189        30.95656         0.39073
C         45.20122        33.09481         0.77839
C         43.93646        33.76890         0.72168
C         45.07623        35.94631         0.29355
C         43.92442        35.19071         0.51568
C         45.00706        37.32424        -0.11967
C         43.80619        37.99963        -0.16596
C         45.09466        40.20469        -0.20741
C         43.76471        39.49042        -0.37774
C         45.05828        41.65688        -0.10793
C         43.88895        42.35749         0.15112
C         44.84660        44.46504        -0.67681
C         43.76799        43.80581        -0.05771
C         44.71372        45.84669        -1.02652
C         43.43002        46.44644        -0.97347
C         43.07100        47.67288        -1.55538
C         47.82202        27.57197         0.56447
C         46.80496        27.05694         0.03161
C         47.91458        28.77464         1.29744
C         46.57148        29.51715         1.24497
C         47.69889        31.92984         1.45018
C         46.49371        31.05104         1.35195
C         47.68268        33.21835         1.00125
C         46.46139        33.83471         0.36657
C         47.61390        36.07697         0.12743
C         46.40132        35.35961         0.68657
C         47.54780        37.30272        -0.45418
C         46.22113        38.00761        -0.72412
C         47.50695        40.21931        -0.80642
C         46.26101        39.50288        -0.40755
C         47.61178        41.70515        -0.57047
C         46.33806        42.48117        -0.15970
C         47.39287        44.55981        -1.17196
C         46.09435        43.68300        -1.08868
C         46.97100        45.81759        -1.46799
C         45.87960        46.49650        -1.52490
C         50.38161        28.99806         2.01049
C         48.96618        29.20233         2.09380
C         50.17076        31.95106         1.78174
C         48.92732        31.42845         2.05476
C         50.18884        33.18401         0.87414
C         48.94087        34.05394         1.08999
C         50.18526        35.97407        -0.13773
C         48.89517        35.28103         0.17389
C         50.02401        37.51700        -0.18388
C         48.81371        37.92433        -1.07250
C         50.04801        40.19950        -1.45911
C         48.73545        39.45668        -1.22019
C         50.00231        41.67733        -1.69482
C         48.78192        42.42921        -1.19297
C         49.98787        44.50840        -1.13395
C         48.66774        43.90385        -1.60175
C         51.25870        29.86721         2.24133
C         52.60482        32.06178         2.04832
C         51.45765        31.27229         2.09599
C         52.39591        33.28755         1.61845
C         51.48070        34.08564         1.06578
C         52.48863        36.39579         0.56007
C         51.59135        35.26861         0.13163
C         52.39879        37.52145         0.04326
C         51.31232        38.28825        -0.47943
C         52.41250        40.46372        -1.05333
C         51.31703        39.53180        -1.01956
C         52.44156        41.70368        -1.07104
C         51.55083        42.65876        -1.77433
C         51.06282        43.90836        -1.19560
O         49.49730        35.20228        -1.16477
O         46.58396        33.57550        -0.99356
O         38.44222        41.63159         2.74765
O         41.87506        43.19910         2.26179
O         42.32196        36.18211        -1.01410
O         33.29965        36.93121        -1.63693
O         47.77205        39.87180        -2.22715
O         38.18243        32.79897         2.03771
O         40.41524        36.91339         2.33342
O         33.54471        34.34277         1.00933
O         48.72747        42.15650         0.25395
O         43.36622        39.79081        -1.81143
O         46.21845        30.16009         2.49426
O         37.94721        45.64253         2.73670
O         50.02699        40.81847        -2.82452
O         48.72810        30.32840         2.91369
O         36.40434        29.51760        -2.44259
O         43.13378        40.67770         1.75778
O         41.46757        27.63605        -2.23217
O         38.30976        35.95473        -0.66897
H         37.62432        36.27985        -1.28926
O         48.97619        37.44932        -2.40945
H         48.96054        36.46115        -2.38737
O         35.81028        33.25065        -1.61156
H         35.04905        33.21477        -2.24310
O         42.78738        31.23476         2.39664
H         42.25718        31.91698         2.86061
O         38.31763        32.02283        -1.45720
H         37.56735        32.42781        -1.95432
O         35.77142        33.50177         2.03300
H         36.48887        33.73762         2.66681
O         51.85809        42.79149        -3.10760
H         51.74726        41.92081        -3.54958
O         44.69579        25.81381        -1.34214
H         43.92936        25.30345        -1.67560
O         40.10183        27.97905         1.13651
H         39.96520        28.68780         1.81051
O         46.52309        42.97416         1.17514
H         47.49274        43.01938         1.35035
O         48.71352        43.92393        -3.02801
H         48.72909        44.85486        -3.33308
O         31.08099        33.60388         0.64445
H         30.34934        34.19591         0.91114
O         45.87021        43.14188        -2.40093
H         45.69007        43.87787        -3.02274
O         38.67764        30.29082         1.78131
H         38.41991        31.08950         2.30427
O         49.04204        34.56965         2.43819
H         48.14816        34.92323         2.68269
O         38.51734        35.06966         2.85920
H         39.18760        34.53364         3.33155
O         34.76533        31.15532         1.25227
H         35.02584        31.90384         1.84758
O         50.22981        32.74944        -0.48296
H         50.93372        32.07435        -0.58014
O         42.69753        28.25014         1.81186
H         42.76931        29.06912         2.35715
O         36.32520        39.62366         2.61733
H         36.75917        38.81883         3.00083
O         40.55083        45.33371         2.71745
H         40.98567        44.63434         3.25692
O         44.01433        31.18266        -1.05836
H         44.74819        31.78835        -1.31428
O         37.38610        28.22060         0.81997
H         38.16903        27.87095         1.30763
O         40.61864        38.07641        -1.24197
H         41.36348        38.12168        -1.89076
O         45.98095        37.89915        -2.16422
H         46.70720        38.40585        -2.61404
O         49.65370        37.91996         1.16098
H         50.42955        37.78575         1.74788
O         35.14586        40.49368        -0.74705
H         36.03130        40.81674        -1.04682
O         37.53239        37.28691         2.67692
H         38.44748        37.17597         3.03059
O         37.75148        40.58020        -0.64799
H         38.14506        39.81826        -1.12585
O         52.05883        34.77372        -1.11402
H         51.28966        34.35034        -1.56389
O         36.29790        43.27748         3.82972
H         36.71702        43.97370         4.37879
O         46.47242        35.43511         2.15173
H         46.25473        36.35164         2.42520
O         40.56670        39.89826         2.69734
H         41.45006        40.30989         2.86027
O         43.26957        38.54577        -2.53954
H         44.22671        38.25061        -2.61776
O         33.78603        39.18990         2.38020
H         33.81509        40.02027         2.91893
O         33.16710        33.54225        -2.39441
H         32.45142        33.24151        -2.99896
O         42.06884        35.07340         2.55269
H         41.83648        35.92933         2.98624
O         33.77922        41.87069         3.20327
H         34.59528        42.16671         3.67673
