         252
 CSIRO Nanostructure Databank - Neutral Graphene Oxide Data Set
C         30.59121        32.08560        -2.08332
C         30.74638        33.31488        -1.99798
C         30.84244        36.53106        -1.66498
C         30.81958        37.76499        -1.58055
C         30.86968        40.88611        -0.96787
C         30.73049        42.01520        -0.29365
C         32.73086        29.17560        -1.28942
C         31.75167        29.78027        -1.72789
C         32.98494        31.88126        -1.47120
C         31.79315        31.17670        -2.26154
C         32.99914        33.30669        -1.34759
C         31.84147        34.14942        -1.61702
C         33.09790        36.21025        -1.12599
C         31.87834        35.54282        -1.45864
C         32.99613        37.66931        -0.59429
C         32.06594        38.62747        -1.45073
C         33.19596        40.57729        -0.31394
C         31.98241        40.02567        -0.84633
C         33.49849        41.95088        -0.37911
C         30.79468        43.29732         0.01192
C         32.98607        44.49098         0.75125
C         31.84805        43.93472         0.58098
C         35.54755        27.44684        -0.85008
C         35.24326        28.84108        -0.51724
C         34.00572        29.63866        -0.74417
C         35.27848        31.79995        -0.56274
C         34.08182        31.14394        -0.96407
C         35.37994        33.21406        -0.60643
C         34.20314        33.95695        -0.95820
C         35.55517        35.93547        -0.98559
C         34.24939        35.38684        -0.99476
C         35.53069        38.05561        -0.52117
C         34.25770        38.39874        -0.16534
C         35.38475        40.36506         0.93116
C         34.06295        39.69589         0.60381
C         35.50431        41.71892         1.01008
C         34.42803        42.56965         0.52201
C         35.39107        44.55063         1.60684
C         34.29527        43.92700         0.93006
C         35.59474        45.86453         2.02773
C         38.01470        27.49124        -0.87384
C         36.61644        26.82766        -0.92498
C         37.69848        28.70613         0.13558
C         36.59291        29.60817        -0.56498
C         37.71651        31.72467         0.32909
C         36.42812        31.01826        -0.01609
C         37.82269        33.17249         0.06648
C         36.61939        33.89516        -0.27798
C         37.90495        36.11459        -0.22264
C         36.67405        35.30254        -0.45652
C         37.82711        37.51265         0.36967
C         36.70044        38.34047         0.27533
C         37.84310        40.11481         1.72086
C         36.57112        39.50509         1.15362
C         37.84632        41.55610         2.20755
C         36.83477        42.40860         1.28394
C         37.95949        44.51006         2.26600
C         36.61835        43.77783         1.95633
C         37.97477        45.97569         2.10221
C         36.68766        46.51024         2.17686
C         40.53002        24.58996        -0.74254
C         39.53768        25.37997        -0.83255
C         40.36969        27.28661         0.07105
C         39.20108        26.66594        -0.41143
C         40.27544        28.62453         0.79240
C         38.97449        29.43688         0.57489
C         40.30903        31.65675         0.51470
C         39.00070        30.94064         0.56969
C         40.30695        33.07474         0.40167
C         39.06091        33.80258         0.13517
C         40.26695        35.87524         0.75676
C         39.13293        35.28486        -0.00444
C         40.17945        37.25530         1.28550
C         38.98074        38.06856         1.02219
C         40.33810        40.13470         1.35316
C         39.08155        39.42357         1.38783
C         40.38867        41.50522         1.52120
C         39.22497        42.24470         2.09625
C         40.53594        44.49236         1.64328
C         39.27139        43.74877         2.12518
C         40.26608        45.87515         1.06502
C         39.12394        46.60070         1.52488
C         40.08003        48.58196         0.48835
C         39.20637        47.95396         1.14533
C         42.99132        24.64088         0.05346
C         41.71029        25.16836        -0.23244
C         42.75867        27.23351         0.76172
C         41.63531        26.58764         0.17465
C         42.73380        28.69374         1.07163
C         41.54650        29.43799         0.45930
C         42.74666        31.63278         0.80743
C         41.51644        30.93993         0.70029
C         42.75653        33.03074         0.62930
C         41.55513        33.75235         0.46550
C         42.64017        35.84420         1.36433
C         41.60211        35.27254         0.42546
C         42.57679        37.11073         1.83506
C         41.39038        38.01337         1.81283
C         42.88688        40.10128         0.99358
C         41.56931        39.31061         0.98514
C         42.71278        41.48749         0.60641
C         41.54874        42.23310         1.01830
C         42.46252        44.28539        -0.01260
C         41.49127        43.63102         0.81568
C         42.29360        45.66743        -0.35598
C         41.27198        46.48655         0.25077
C         42.24285        48.35233        -0.90298
C         41.19402        47.92346        -0.04859
C         43.93245        25.08621         0.74681
C         45.29945        27.24633         1.32371
C         43.96392        26.48232         1.16005
C         45.29136        28.74626         0.89896
C         44.01341        29.45802         1.35349
C         45.31677        31.69215         1.06417
C         43.99853        31.00971         1.43132
C         45.33944        33.04691         0.95133
C         44.04498        33.75595         0.79222
C         45.91542        36.17818         1.53540
C         43.92569        35.13339         1.33548
C         45.76183        37.60984         1.37122
C         44.56219        38.27227         1.61955
C         45.24373        40.15498         0.18531
C         44.19275        39.53338         1.00314
C         44.82836        41.31148        -0.69474
C         43.72551        42.16431        -0.13557
C         44.63915        44.17525        -1.31804
C         43.56259        43.49551        -0.53282
C         44.55458        45.66861        -1.32435
C         43.17731        46.20190        -1.50561
C         43.12326        47.70937        -1.48814
C         47.63618        27.38294         1.11204
C         46.62581        26.65636         1.08631
C         47.82009        28.81187         1.06071
C         46.60200        29.46905         1.11869
C         47.59222        31.51143         0.09298
C         46.66181        30.98536         1.25031
C         47.65897        33.06817        -0.01311
C         46.69752        33.81891         0.95380
C         47.93168        36.02310         0.22293
C         46.72277        35.35786         0.77024
C         47.97767        37.52606         0.19834
C         46.91435        38.40718         0.83462
C         47.33792        39.87666        -1.22556
C         46.45845        39.54977        -0.02786
C         47.04357        41.26358        -1.68829
C         46.02875        42.04499        -1.24969
C         47.25586        44.31839        -1.68198
C         45.95935        43.48823        -1.62951
C         46.91162        45.65493        -1.51924
C         45.78708        46.25763        -1.48663
C         50.34973        29.09782         0.81620
C         49.04893        29.51430         0.80471
C         50.23682        31.55171        -0.37933
C         48.96331        30.82609         0.05741
C         50.17078        33.03214        -0.78868
C         48.85988        33.78194        -0.60191
C         50.24220        36.04553        -0.66657
C         48.88557        35.34024        -0.74863
C         50.23202        37.48420        -0.73700
C         49.00652        38.20919        -0.62302
C         50.03837        40.32964        -1.29514
C         48.84384        39.53673        -1.04012
C         50.07249        41.76504        -1.55834
C         48.90971        42.45060        -1.92705
C         49.78979        44.46435        -1.21570
C         48.57515        43.80898        -1.62874
C         51.47493        29.66367         0.54511
C         52.63682        31.85085        -0.21218
C         51.58348        30.92642         0.02567
C         52.60985        33.07147        -0.43678
C         51.45531        33.85725        -0.89496
C         52.56530        36.18543        -0.83911
C         51.43658        35.32612        -0.77310
C         52.56958        37.43927        -0.86398
C         51.41773        38.27136        -0.90932
C         52.36521        40.61556        -0.97075
C         51.30153        39.66895        -1.04910
C         52.45972        41.85014        -0.84771
C         51.37135        42.65832        -1.50829
C         50.88013        43.95583        -0.86893
O         47.71545        33.36669        -1.43097
O         44.23533        40.55987        -1.90442
O         37.09490        43.98573         3.29781
O         43.67231        37.66071         2.50952
O         47.94036        41.74515        -2.63816
O         38.88924        35.90175        -1.30024
O         44.96317        43.69975        -2.69897
O         44.30155        34.94491        -0.07368
O         36.96278        39.26824         2.54640
O         48.66262        36.75294         1.26861
O         44.89892        35.55017         2.25346
O         37.49448        42.60303         0.09222
O         50.81056        33.31465        -2.07699
O         47.16092        31.18617         2.53572
O         43.20789        28.93667         2.42989
O         44.57035        26.84499         2.43744
O         49.48870        30.71266        -1.30842
O         38.43140        27.90104        -2.08630
O         38.79765        30.18486         1.82271
O         39.58665        42.96735         3.31853
O         35.72014        37.16868        -1.59125
O         34.39661        29.20238         0.58728
O         39.93459        36.07093         2.16159
O         36.71446        31.35562         1.35371
O         32.64584        38.75990        -2.73801
H         32.06080        39.30915        -3.29944
O         46.88893        38.95437        -2.26641
H         45.98107        39.22096        -2.53691
O         43.85019        31.33018         2.84086
H         44.69971        31.12153         3.28963
O         33.35261        39.53498         1.84131
H         32.52323        39.03575         1.64699
O         47.55511        39.02870         1.99436
H         48.06129        38.31480         2.44702
O         48.38790        35.64185        -2.06780
H         48.77311        35.00503        -2.70601
O         40.33289        28.25607         2.17879
H         39.93187        28.98685         2.70507
O         45.16338        28.73691        -0.56297
H         45.78998        29.40938        -0.93890
O         51.73235        42.94388        -2.83283
H         52.54942        43.48317        -2.83886
O         43.34421        41.44062        -2.61687
H         43.94731        42.15490        -2.96966
O         37.13939        28.14693         1.31616
H         37.17766        28.82636         2.02561
O         47.28453        33.71837         2.25848
H         47.24638        32.76168         2.59530
O         46.88270        31.03649        -1.07850
H         47.35865        31.39856        -1.86339
O         41.89664        35.69809        -0.92206
H         42.83602        35.45558        -1.10899
O         37.42498        41.56291         3.54815
H         36.88880        40.74956         3.70328
O         41.11772        38.41855         3.16749
H         40.81751        37.62571         3.66235
O         41.32164        44.78050         2.83949
H         41.09859        44.07820         3.49852
O         41.45880        38.87958        -0.39393
H         41.64166        39.63652        -0.99179
O         32.15860        31.17212        -3.61307
H         31.49115        30.67845        -4.13201
O         42.63551        45.70092        -2.72456
H         43.31865        45.75078        -3.42573
O         32.23607        37.47337         0.63725
H         32.72039        36.84254         1.21066
O         41.71090        29.31685        -0.97793
H         42.52591        29.78464        -1.25755
O         36.90304        29.89231        -1.93141
H         37.38964        29.11042        -2.33996
O         33.04136        42.70528        -1.40058
H         32.45046        42.17709        -1.97564
