         244
 CSIRO Nanostructure Databank - Neutral Graphene Oxide Data Set
C          1.24342         2.01516         0.14888
C          1.21105         3.42245        -0.07478
C          2.43295         1.34573         0.31229
C          2.35989         4.19726        -0.03348
C          1.12234         6.33985        -0.44291
C          1.06903         7.69528        -0.41777
C          2.36824         5.60933        -0.30961
C          2.31823         8.48069        -0.35234
C          1.07719        10.76470        -0.37806
C          1.04424        12.08137        -0.61464
C          2.33425         9.98826        -0.38238
C          2.26048        12.91050        -0.93461
C          1.13085        14.93124         0.20708
C          1.15800        16.17875         0.75801
C          2.33226        14.17392        -0.06650
C          2.38130        16.69780         1.37268
C          2.53784        18.13037         1.71954
C          3.67805         2.05869         0.30952
C          3.63826         3.56317         0.47890
C          4.88229         1.39817         0.27447
C          4.89492         4.24402        -0.01026
C          3.59284         6.31299        -0.41881
C          3.53526         7.75080        -0.89456
C          4.84465         5.66516        -0.30361
C          4.81237         8.52868        -0.70195
C          3.56712        10.67794        -0.84032
C          3.56038        12.10986        -0.90427
C          4.76912         9.94255        -0.89723
C          4.75191        12.82479        -0.95533
C          3.55932        14.73431         0.20771
C          3.65786        15.90907         1.08774
C          4.76080        14.23724        -0.51684
C          4.97812        16.59746         1.28858
C          3.74750        18.71555         1.89104
C          5.01529        18.03230         1.67150
C          6.13160         2.11026         0.16814
C          6.07976         3.54937        -0.05833
C          7.34191         1.44801         0.21800
C          7.33374         4.22806        -0.54629
C          6.07312         6.40212        -0.41552
C          6.04189         7.85605        -0.56554
C          7.30421         5.72551        -0.34966
C          7.26665         8.58752        -0.56434
C          6.03374        10.62057        -1.22166
C          6.02655        12.17378        -1.27165
C          7.30171         9.95591        -0.88423
C          7.31919        12.86086        -1.08813
C          6.07418        14.93162        -0.36653
C          6.19388        16.05567         0.61464
C          7.34468        14.24819        -0.73645
C          7.41820        16.85861         0.60932
C          6.21001        18.70656         1.69896
C          7.47443        18.09718         1.29436
C          8.60008         2.15567         0.17587
C          8.59752         3.56174        -0.06390
C          9.81309         1.49974         0.41540
C          9.78445         4.29590         0.01374
C          8.54225         6.42208        -0.28585
C          8.52990         7.92124        -0.10394
C          9.74051         5.72879        -0.14594
C          9.78160         8.64350        -0.54902
C          8.52293        10.70098        -0.89064
C          8.51699        12.11634        -1.07330
C          9.78111        10.00797        -0.70909
C          9.79046        12.83885        -1.23281
C          8.53064        14.95367        -0.62188
C          8.67130        16.08047         0.36205
C          9.78246        14.36763        -1.08109
C          9.83341        17.02928         0.06267
C          8.70904        18.73061         1.50829
C         10.01140        18.00121         1.25677
C         11.03917         2.21465         0.45810
C         11.03471         3.63323         0.28633
C         12.26837         1.56039         0.74638
C         12.26116         4.34639         0.39376
C         11.03167         6.43742        -0.25488
C         11.05184         7.90600        -0.50875
C         12.25025         5.85781         0.42208
C         12.32489         8.64307        -0.37276
C         11.04915        10.79637        -0.41137
C         11.09411        12.17760        -1.01912
C         12.34049        10.01875        -0.54793
C         12.26405        12.86268        -1.14239
C         11.07506        15.07602        -0.87303
C         11.11004        16.33744        -0.37019
C         12.28587        14.36248        -1.46891
C         12.32757        17.23643        -0.54613
C         11.23732        18.84880         1.07984
C         12.39870        18.37885         0.50181
C         13.45576         2.27069         0.85527
C         13.45816         3.67831         0.66014
C         14.70773         1.55324         1.30493
C         14.72574         4.49676         0.80961
C         13.51662         6.51115        -0.07461
C         13.54911         7.87661        -0.33340
C         14.74192         5.65405        -0.20522
C         14.80341         8.57567        -0.52843
C         13.57605        10.69648        -0.75954
C         13.54960        12.10820        -1.18185
C         14.80495         9.98530        -0.76429
C         14.87383        12.83953        -1.32264
C         13.57345        15.03352        -1.03662
C         13.58250        16.37575        -0.71636
C         14.89246        14.37225        -1.43173
C         14.84600        17.04154        -0.76833
C         13.60001        19.06204         0.89410
C         14.87134        18.88916         0.32364
C         15.98832         2.28971         0.98004
C         15.99273         3.67399         0.70361
C         17.18757         1.57489         0.98978
C         17.20439         4.33346         0.41603
C         16.02915         6.44713        -0.16148
C         16.02501         7.85340        -0.43739
C         17.22415         5.74545         0.06066
C         17.26128         8.55358        -0.61369
C         16.07039        10.69017        -0.87037
C         16.10725        12.10232        -0.96097
C         17.30066         9.95479        -0.76855
C         17.34071        12.79549        -0.79081
C         16.07673        14.99769        -0.74553
C         16.08504        16.37783        -0.56197
C         17.34917        14.26429        -0.45269
C         17.31112        17.10843        -0.23636
C         16.13277        19.06140         0.88362
C         17.32552        18.40643         0.38484
C         18.42490         2.22632         0.79299
C         18.43636         3.62255         0.50123
C         19.66777         1.52700         0.91945
C         19.68468         4.30956         0.37921
C         18.48371         6.38950        -0.13572
C         18.48992         7.75867        -0.64447
C         19.70492         5.71477         0.07687
C         19.84660         8.52988        -0.60786
C         18.57320        10.66831        -0.75586
C         18.55671        12.11596        -0.72689
C         19.77926         9.99407        -0.59629
C         19.81027        12.86479        -0.59958
C         18.54486        15.02332        -1.04614
C         18.54096        16.45129        -0.50998
C         19.82328        14.28033        -0.70073
C         19.75560        17.11517        -0.35065
C         18.57061        18.99069         0.68176
C         19.78960        18.40175         0.27371
C         20.86151         2.20019         0.83746
C         20.89513         3.60761         0.59456
C         22.12880         4.33125         0.59699
C         20.95638         6.43164         0.13597
C         20.98281         7.84080         0.00278
C         22.15094         5.69139         0.42239
C         22.01864         8.65946         0.58386
C         21.11773        10.68475        -0.57196
C         21.03735        12.18398        -0.42911
C         22.05223        10.00503         0.40700
C         22.22648        12.91203        -0.30112
C         21.03079        14.99117        -0.62739
C         21.00074        16.48277        -0.92650
C         22.22785        14.30300        -0.38407
C         22.25831        17.22342        -0.57821
C         21.03798        19.03813         0.49854
C         22.24047        18.43237         0.07039
O          2.95278        15.77085         2.35931
O          9.74297        13.73319        -2.40031
O         14.21593        12.26454        -2.49736
O          6.00632        11.35142        -2.48042
O          2.54226         9.22193         0.87995
O         14.83883        18.39066        -1.02686
O          5.22156        15.23829        -1.52770
O         19.32534         7.92885        -1.83510
O         11.22280         6.90583        -1.62734
O          5.87997        15.68660         2.03661
O         10.32143        17.31767         2.51222
H          9.74901        16.51102         2.56877
O         15.02595        14.70127        -2.84509
H         14.26941        14.26034        -3.30285
O         14.70783         5.10721         2.14202
H         14.85688         4.39718         2.80141
O         20.85871        16.55999        -2.40101
H         20.85800        17.51123        -2.64175
O          8.55614         8.09497         1.37442
H          8.25826         9.00968         1.56809
O          8.92245        15.33719         1.62309
H          8.04419        15.11375         2.00842
O         18.42785        15.05795        -2.47904
H         19.24178        15.50282        -2.81895
O         10.92770        11.07964         1.03634
H         10.91142        10.21664         1.50458
O         17.55404        14.33355         0.99877
H         16.85920        13.79657         1.43345
O          7.34528         4.03516        -2.01653
H          6.54184         4.47086        -2.37290
O         14.74737         0.21985         0.78597
H         14.79037         0.27541        -0.19057
O         12.24974        14.51161        -2.91342
H         11.34752        14.21477        -3.19617
O          2.09434        13.36673        -2.30863
H          2.91976        13.82531        -2.57571
O          3.31303         7.69189        -2.34533
H          4.13209         7.35414        -2.76472
O         14.67283         5.01755        -1.52103
H         14.57762         5.72364        -2.19477
O         12.12227        17.91726        -1.82211
H         12.93490        18.44570        -1.99614
O          9.40508        17.82906        -1.06675
H         10.21093        18.12483        -1.55335
O         12.14180         6.23641         1.83450
H         12.98328         5.93769         2.26292
O         21.71142        10.46715        -1.90288
H         21.55794         9.52856        -2.14564
O          3.61394         3.79349         1.93454
H          2.80047         3.36766         2.27941
H          0.29850         1.45521         0.11544
H          0.24376         3.86977        -0.34203
H          2.44945         0.24774         0.37764
H          0.17877         5.77756        -0.46777
H          0.09600         8.20689        -0.40950
H          0.14566        10.23351        -0.13271
H          0.07329        12.59807        -0.61467
H          0.17952        14.55356        -0.19280
H          0.25362        16.80481         0.75995
H          1.62240        18.72970         1.83822
H          4.90427         0.29710         0.27675
H          3.79616        19.78306         2.15525
H          7.35788         0.35904         0.37602
H          6.22238        19.76267         2.01048
H          9.81920         0.41367         0.59115
H          8.73599        19.67379         2.07597
H         12.27651         0.47316         0.91340
H         11.31824        19.72491         1.74477
H         14.65002         1.44711         2.42732
H         13.53222        19.68469         1.79943
H         17.16455         0.49416         1.19243
H         16.22230        19.65236         1.80677
H         19.65046         0.44607         1.12039
H         18.59595        19.96139         1.19818
H         21.81175         1.66303         0.97181
H         23.06555         3.78162         0.76983
H         23.11194         6.22405         0.44523
H         22.76940         8.17761         1.22812
H         22.84754        10.59414         0.88648
H         23.18136        12.38119        -0.18438
H         23.17863        14.84772        -0.30735
H         23.21245        16.82717        -0.95401
H         21.06540        20.01395         1.00269
H         23.18984        18.95581         0.25823
