         424
 CSIRO Nanostructure Databank - Neutral Graphene Oxide Data Set
C          1.41263         3.50920        -1.27018
C          0.24646         4.22306        -1.61245
C          1.10972         6.25919        -0.43698
C          0.09928         5.55167        -1.29397
C          1.21219         7.75200        -0.73336
C         -0.01338         8.54219        -0.63591
C          1.24970        10.60877        -0.24576
C          0.02905         9.89834        -0.51324
C          1.13706        12.01587         0.21164
C          0.08310        12.88536        -0.27748
C          1.15890        14.93479         0.55497
C          0.08644        14.25314        -0.03731
C          1.18201        16.37866         0.61460
C         -0.03339        17.11915         0.56296
C          1.18670        19.22579         0.49092
C         -0.02841        18.49668         0.54404
C          1.20132        20.67002         0.46118
C          0.01699        21.42839         0.63362
C          1.27567        23.50585         0.51385
C          0.05141        22.80812         0.66483
C          1.31934        24.96247         0.48502
C          0.22075        25.71789         1.02406
C          1.33152        27.83064         0.50641
C          0.28059        27.07833         1.13410
C          1.39657        29.20477         0.59822
C          0.56336        29.99429         1.47925
C          1.23706        32.09981         0.31694
C          0.49899        31.34207         1.39959
C          1.41272        33.55538         0.64328
C          0.25987        34.30700         1.03271
C          1.50235        36.43070         0.75681
C          0.29741        35.65984         1.20532
C          1.67529        37.76808         1.42337
C          3.77193         3.47470        -0.55311
C          2.53474         4.18375        -0.70228
C          3.59954         6.27908         0.13543
C          2.44417         5.56040        -0.41449
C          3.69085         7.73930         0.05369
C          2.52451         8.49761        -0.42149
C          3.67154        10.58493         0.35791
C          2.45448         9.93052        -0.09416
C          3.68164        12.00842         0.57719
C          2.41185        12.70565         0.73772
C          3.61161        14.91520         0.34622
C          2.41396        14.20593         0.99617
C          3.71760        16.36879         0.85477
C          2.40675        17.09362         0.63388
C          3.66431        19.20272         0.28537
C          2.41702        18.50237         0.49499
C          3.66652        20.60935         0.11833
C          2.43296        21.36180         0.28655
C          3.77696        23.50446         0.23555
C          2.45528        22.77324         0.29978
C          3.66828        24.94183        -0.25455
C          2.43530        25.62975        -0.03292
C          3.61258        27.79598        -0.57260
C          2.28277        27.08593        -0.42241
C          3.63049        29.15424        -0.49368
C          2.34491        29.92287        -0.33996
C          3.76768        32.00019         0.03670
C          2.52138        31.37754         0.00387
C          3.86043        33.40507         0.33947
C          2.68686        34.17363         0.57308
C          3.99235        36.26958         0.70270
C          2.76750        35.60426         0.77040
C          4.05979        37.70658         0.90274
C          2.87421        38.38060         1.41694
C          6.19696         3.43989        -0.16517
C          4.95508         4.10015        -0.14892
C          6.16785         6.28534         0.34493
C          4.91611         5.50855         0.30692
C          6.12844         7.68507         0.48638
C          4.87574         8.41474         0.38018
C          6.10496        10.57064         0.95309
C          4.86344         9.85392         0.48134
C          6.14604        12.03298         0.55751
C          4.91227        12.73721         0.53658
C          6.10822        14.87884         0.27322
C          4.92050        14.17153         0.45392
C          6.11077        16.33235         0.10596
C          4.91449        17.06415         0.25403
C          6.10134        19.17005        -0.16758
C          4.89093        18.47388         0.12162
C          6.08261        20.58859        -0.33333
C          4.86257        21.28659        -0.21740
C          6.09995        23.46352        -0.66398
C          4.77607        22.73867        -0.62036
C          6.07992        24.86306        -0.81321
C          4.82261        25.57885        -0.70086
C          6.08535        27.74679        -1.23095
C          4.75403        27.00657        -1.19357
C          6.00886        29.15633        -1.15948
C          4.86665        29.88952        -0.65305
C          6.33719        31.88012        -0.17467
C          4.96181        31.23920        -0.32249
C          6.32947        33.39286        -0.22028
C          5.20857        34.05450         0.54684
C          6.36195        36.24320         0.08349
C          5.19320        35.55185         0.39641
C          6.41213        37.68482         0.22428
C          5.24188        38.37606         0.68934
C          8.63549         3.43492         0.15544
C          7.40811         4.12659         0.12039
C          8.63100         6.24318         0.47784
C          7.39502         5.55688         0.30542
C          8.63093         7.69302         0.52760
C          7.37390         8.43495         0.55209
C          8.65594        10.58032         0.84962
C          7.36798         9.81626         0.64405
C          8.61290        12.01986         0.36955
C          7.36252        12.71944         0.36031
C          8.54054        14.86367        -0.06084
C          7.35661        14.16266         0.17449
C          8.57233        16.29355        -0.19390
C          7.32674        17.02356        -0.15538
C          8.53782        19.16428        -0.50911
C          7.32832        18.44875        -0.28970
C          8.54031        20.57177        -0.59750
C          7.31165        21.29999        -0.55783
C          8.54499        23.43338        -0.83456
C          7.30803        22.72313        -0.69300
C          8.52728        24.82697        -1.03566
C          7.30897        25.57337        -1.08254
C          8.61997        27.64742        -1.42605
C          7.30838        26.99604        -1.34332
C          8.81240        28.98446        -1.82881
C          7.03836        30.03968        -1.63616
C          8.56505        31.97486        -1.57688
C          7.31269        31.28043        -1.15088
C          8.58492        33.45028        -1.30522
C          7.42314        34.10280        -0.63540
C          8.71318        36.22808        -0.64951
C          7.52514        35.54019        -0.40349
C          8.77760        37.65907        -0.43421
C          7.59890        38.35717        -0.02594
C         11.09768         3.41322         0.37166
C          9.86174         4.11068         0.37011
C         11.10965         6.25808         0.89966
C          9.84109         5.53537         0.52684
C         11.10371         7.70015         0.45760
C          9.84129         8.36804         0.42885
C         11.05250        10.54727        -0.14603
C          9.80183         9.82953         0.21032
C         11.07027        12.01028         0.06994
C          9.81490        12.68742         0.11302
C         11.03697        14.88763        -0.01133
C          9.80067        14.11463        -0.37944
C         11.04267        16.27079        -0.10782
C          9.79583        16.97549        -0.30898
C         11.03599        19.19683        -0.30966
C          9.82431        18.41373        -0.75566
C         11.03421        20.57120        -0.42893
C          9.79104        21.30030        -0.65649
C         11.04071        23.42466        -0.66144
C          9.79009        22.69322        -0.75210
C         11.05460        24.80452        -0.81034
C          9.83984        25.49457        -1.35639
C         11.03210        27.68103        -0.90374
C          9.82503        26.97158        -1.10995
C         11.07199        29.11307        -0.99788
C          9.91631        29.78743        -1.45263
C         11.08062        31.93272        -1.47225
C          9.88142        31.23405        -1.56263
C         11.07242        33.41092        -1.82752
C          9.87578        34.15024        -1.28640
C         11.14192        36.24925        -1.25636
C          9.91853        35.52542        -1.07442
C         11.17720        37.66564        -1.02344
C          9.97617        38.33852        -0.61919
C         13.57152         3.41611         0.21767
C         12.34641         4.10075         0.38566
C         13.56053         6.23977         0.38456
C         12.35987         5.52670         0.49854
C         13.55187         7.68252         0.33949
C         12.29798         8.37319         0.24254
C         13.56807        10.54260         0.14842
C         12.35258         9.77787        -0.33248
C         13.52613        11.97636         0.17558
C         12.30067        12.68708         0.12476
C         13.51471        14.88083        -0.09918
C         12.28795        14.16940         0.42258
C         13.51061        16.36067         0.00560
C         12.29566        17.01804         0.00770
C         13.54499        19.20559        -0.11487
C         12.25427        18.50505         0.24945
C         13.52736        20.60639        -0.23784
C         12.27455        21.31791        -0.29837
C         13.50082        23.45611        -0.33936
C         12.26973        22.71428        -0.40950
C         13.48492        24.85735        -0.36023
C         12.25014        25.56275        -0.57341
C         13.39143        27.73761        -0.01153
C         12.22786        26.96683        -0.57648
C         13.48905        29.16891        -0.51178
C         12.30522        29.84413        -0.86230
C         13.56316        31.93142        -1.16721
C         12.32524        31.24509        -1.19223
C         13.60432        33.36399        -1.54828
C         12.36243        34.13669        -1.56423
C         13.61815        36.26610        -1.41936
C         12.37463        35.53079        -1.49904
C         13.62014        37.75704        -1.66111
C         12.34278        38.39801        -1.23081
C         16.03735         3.43664        -0.01313
C         14.79983         4.11419         0.15491
C         16.01807         6.27735         0.16831
C         14.79934         5.54673         0.23384
C         16.01685         7.70757         0.28143
C         14.76292         8.40409         0.33564
C         15.98424        10.55328         0.87753
C         14.73897         9.84505         0.40113
C         15.95980        12.02435         0.52393
C         14.78767        12.68672         0.27328
C         16.05162        14.90851         0.14110
C         14.80712        14.13711        -0.04224
C         16.01608        16.34268         0.07262
C         14.77871        17.05566         0.00910
C         16.02680        19.16649        -0.17886
C         14.78578        18.47924        -0.09106
C         16.03289        20.60605        -0.61909
C         14.75467        21.34620        -0.32903
C         15.99537        23.48876        -0.28366
C         14.75192        22.73945        -0.31031
C         15.97984        24.88218        -0.20118
C         14.71872        25.61014        -0.22155
C         15.91263        27.74009         0.33527
C         14.69141        26.98402        -0.10234
C         15.92811        29.19001        -0.08764
C         14.72646        29.86658        -0.45524
C         15.99417        32.00045        -0.56795
C         14.76532        31.27522        -0.77267
C         16.03035        33.44112        -0.65894
C         14.88545        34.14990        -1.24635
C         15.93619        36.32468        -0.58180
C         14.80227        35.61145        -1.10416
C         15.82222        37.75861        -0.40368
C         14.71958        38.44657        -0.91740
C         18.49419         3.46453        -0.30139
C         17.24186         4.14366        -0.10363
C         18.46558         6.30112        -0.10740
C         17.24339         5.57625        -0.00596
C         18.47050         7.72825         0.00505
C         17.24209         8.43039         0.23488
C         18.46752        10.54783         0.35911
C         17.26318         9.85268         0.43268
C         18.51904        12.00567         0.63482
C         17.21628        12.77969         0.67843
C         18.49032        14.92674         0.41022
C         17.24075        14.22959         0.38965
C         18.48654        16.35104         0.29198
C         17.24763        17.06028         0.14757
C         18.49848        19.21246         0.03657
C         17.24556        18.48419        -0.00299
C         18.50899        20.63991        -0.06503
C         17.27582        21.37015        -0.24299
C         18.47613        23.52980        -0.18807
C         17.25243        22.76637        -0.24377
C         18.46384        24.90820        -0.15316
C         17.21504        25.63155        -0.10976
C         18.42584        27.76562         0.20486
C         17.20270        27.01760         0.05087
C         18.37359        29.18842         0.31109
C         17.13540        29.88891         0.03878
C         18.36331        32.02760         0.17205
C         17.15954        31.31236        -0.13507
C         18.39458        33.48570         0.01816
C         17.13740        34.18987        -0.26710
C         18.17030        36.35671         0.46489
C         17.09620        35.63410        -0.17130
C         18.02591        37.76905         0.68983
C         16.87178        38.44553         0.25231
C         19.66501         4.16305        -0.40994
C         20.88887         6.32502        -0.43703
C         19.68503         5.59499        -0.31999
C         20.89222         7.70700        -0.34139
C         19.69904         8.43765        -0.11475
C         20.85814        10.64535        -0.17729
C         19.69735         9.88179         0.01533
C         20.87332        12.04768        -0.05796
C         19.74759        12.76216         0.33287
C         20.92929        14.94518         0.44877
C         19.72648        14.20708         0.42869
C         20.92407        16.33093         0.41897
C         19.72174        17.06197         0.31176
C         20.92903        19.24110         0.28332
C         19.72084        18.51109         0.21393
C         20.93266        20.62425         0.18424
C         19.73455        21.33690         0.02899
C         20.77731        23.54406         0.69655
C         19.81500        22.82195        -0.22369
C         20.75742        24.87919         0.74861
C         19.79171        25.64908        -0.13732
C         20.84290        27.84999         0.46391
C         19.67447        27.10816         0.23452
C         20.78828        29.22310         0.67020
C         19.56257        29.91648         0.56361
C         20.55993        32.10904         1.27322
C         19.51097        31.36508         0.62830
C         20.52665        33.46627         1.40320
C         19.56418        34.26887         0.65056
C         20.31867        36.44467         1.62651
C         19.34745        35.71035         0.94398
C         20.16988        37.82906         1.84282
C         19.05019        38.48500         1.37609
O          8.32061        32.91202        -2.69529
O         19.52715        33.97415        -0.78010
O          4.04858         5.74821         1.45175
O         14.56559        33.68910        -2.60475
O         10.05405        10.18981        -1.19186
O          2.11154         8.12767        -1.80168
O         14.10204        14.39312        -1.33489
O          7.85671        29.55168        -2.66852
O         17.92051        12.41000         1.93308
O          1.45433        12.08509         1.65992
O          9.93608        18.33115        -2.23562
H         10.66378        17.70509        -2.44050
O         11.12261         6.29263         2.38149
H         11.14830         5.36201         2.69085
O          6.04547        10.59398         2.44613
H          5.79527         9.69010         2.73782
O         12.54266         9.60646        -1.76887
H         11.63954         9.51757        -2.15440
O          9.98745        25.38690        -2.83110
H          9.19823        25.81023        -3.23340
O         15.97360        10.48092         2.34255
H         16.70643        11.07185         2.64620
O         16.08709        20.52905        -2.10588
H         15.91207        21.43202        -2.44851
O         13.79620        37.96721        -3.11488
H         14.47687        37.33357        -3.42632
O          8.89453        10.61316         2.28910
H          8.02206        10.80143         2.71352
O          4.24492        22.74617        -1.97992
H          4.91089        22.33422        -2.56899
O          1.67923        27.09067        -1.76278
H          1.54221        28.04974        -1.98897
O          0.59446         6.21853         0.95022
H          0.62247         5.28371         1.24650
O          4.36475        26.89686        -2.61092
H          3.38695        26.73786        -2.62399
O          6.79605        31.54232         1.18270
H          6.26860        32.10998         1.80034
O         12.37356        14.30757         1.88127
H         11.59297        13.86228         2.27393
O         12.12858        18.65037         1.72475
H         12.86421        18.14246         2.12938
O          0.36147        32.05094        -0.88980
H          0.70713        32.71722        -1.52175
O          9.81996        13.99608        -1.85729
H         10.52818        13.35706        -2.09103
O         10.93050        33.45651        -3.29608
H          9.98009        33.24437        -3.48563
O          4.00766        16.41618         2.27635
H          3.37089        15.81835         2.73731
O          4.31069        23.54862         1.58834
H          3.64950        23.99141         2.15994
O         15.82216        27.79022         1.83171
H         15.94336        26.87084         2.15514
O          1.69930        29.86317        -1.67079
H          0.93612        30.49809        -1.62063
O          1.24767        36.74163        -0.67373
H          1.11827        35.88434        -1.13235
O          2.49305        14.32322         2.44414
H          1.90771        13.61683         2.80579
O         20.35570        22.94736        -1.58998
H         19.74851        22.46519        -2.19072
O          5.52408        33.82089         1.99579
H          6.25648        34.43142         2.23054
O         20.33359        25.65922        -1.48748
H         20.48028        24.71319        -1.74855
O         13.10002        27.86274         1.43454
H         13.96426        28.07080         1.87241
O          3.28886        14.96285        -1.07136
H          4.05207        15.35671        -1.54494
H          1.49750         2.44268        -1.51981
H         -0.55404         3.70394        -2.15997
H         -0.82267         6.08358        -1.56935
H         -0.97920         8.01907        -0.59270
H         -0.91616        10.45695        -0.45625
H         -0.66905        12.47087        -0.96307
H         -0.74997        14.84065        -0.44359
H         -0.99442        16.58731         0.58217
H         -0.99014        19.02614         0.53911
H         -0.94939        20.92380         0.76290
H         -0.88863        23.36070         0.79325
H         -0.62856        25.18510         1.47212
H         -0.51917        27.61225         1.66578
H         -0.01202        29.47740         2.26212
H         -0.11338        31.90622         2.11806
H         -0.67866        33.76163         1.21297
H         -0.60688        36.21072         1.50220
H          0.78256        38.27814         1.81519
H          3.80638         2.41779        -0.85695
H          2.99146        39.39797         1.82034
H          6.23607         2.37291        -0.42991
H          5.30157        39.46132         0.86006
H          8.64177         2.34562         0.00253
H          7.64813        39.44806         0.10728
H         11.09269         2.31942         0.25473
H         10.01224        39.42610        -0.45695
H         13.56892         2.31979         0.12509
H         12.33081        39.48512        -1.05903
H         16.04459         2.33875        -0.08522
H         14.67884        39.54170        -0.81716
H         18.49258         2.36695        -0.37198
H         16.78687        39.53015         0.41503
H         20.61563         3.63280        -0.56797
H         21.83223         5.78503        -0.60319
H         21.85050         8.23580        -0.43176
H         21.79498        10.15135        -0.46617
H         21.80818        12.57601        -0.29066
H         21.89260        14.42028         0.50197
H         21.88966        16.85166         0.45043
H         21.88794        18.72335         0.41028
H         21.88831        21.16565         0.21023
H         21.47816        22.96126         1.31251
H         21.45374        25.42587         1.40233
H         21.81797        27.34337         0.46228
H         21.72067        29.77907         0.83774
H         21.33899        31.54798         1.80891
H         21.22804        33.96119         2.08951
H         21.23275        35.95074         1.98285
H         20.95782        38.38131         2.37309
H         18.92880        39.56626         1.53342
