         276
 CSIRO Nanostructure Databank - Neutral Graphene Oxide Data Set
C        -11.34995         0.68528         0.06797
C        -10.15946         1.49480        -0.31606
C         -8.89094         0.74525        -0.53827
C         -7.59860         1.50769        -0.50764
C         -6.33060         0.73194        -0.57519
C         -5.06784         1.36120        -0.06301
C         -3.81378         0.73159        -0.55098
C         -2.49589         1.35656        -0.10828
C         -1.37545         0.78645        -0.99593
C         -0.01988         1.40979        -0.69142
C          1.15176         0.64404        -1.30680
C          2.47903         1.41101        -1.49171
C          3.79196         0.65379        -1.46720
C          5.11013         1.41734        -1.54127
C          6.41120         0.63555        -1.41593
C          7.70533         1.38462        -1.27579
C          9.00201         0.62470        -1.02900
C         10.21116         1.37277        -0.41826
C         11.41099         0.57393        -0.04269
C        -10.07558         2.96722        -0.13741
C         -8.86917         3.65358        -0.01516
C         -7.61010         2.83124         0.24286
C         -6.30647         3.57090        -0.02495
C         -5.02734         2.81568         0.26460
C         -3.71364         3.52922         0.14370
C         -2.54164         2.87840        -0.09144
C         -1.28705         3.66927        -0.44456
C          0.01955         2.86344        -0.40026
C          1.32819         3.58622        -0.60469
C          2.48129         2.92178        -1.36013
C          3.79697         3.67792        -1.42203
C          5.12042         2.92922        -1.51051
C          6.40354         3.66836        -1.13772
C          7.78912         2.93170        -1.15218
C          8.56170         3.25894         0.14710
C          9.93062         2.63876         0.19479
C         -8.80136         5.07479         0.05505
C         -7.58214         5.82321         0.02826
C         -6.30949         5.05392        -0.11489
C         -5.05679         5.73611         0.32714
C         -3.76212         4.97840         0.47055
C         -2.46969         5.80413         0.60191
C         -1.18307         5.03216         0.25962
C          0.07108         5.81408         0.03141
C          1.33803         5.06540        -0.37533
C          2.55250         5.84565        -0.89582
C          3.77825         4.96842        -0.63084
C          4.98975         5.48672         0.06209
C          6.32265         4.96259        -0.37665
C          7.50707         5.51647         0.34537
C          8.59750         4.72743         0.50866
C         -7.50369         7.20618         0.06594
C         -6.21494         7.92880        -0.30099
C         -5.01857         7.18718         0.24351
C         -3.77600         7.94174         0.35485
C         -2.55432         7.20063         0.00090
C         -1.33586         8.07459        -0.33096
C          0.01014         7.25391        -0.52224
C          1.29999         8.02355        -0.15085
C          2.59592         7.27502        -0.29810
C          3.86726         7.80865         0.37430
C          4.91580         6.77596         0.89902
C          6.22521         7.52613         1.02959
C          7.41795         6.89371         0.82605
C         -6.12523         9.41146         0.03939
C         -5.02237        10.05206         0.46992
C         -3.78542         9.31782         0.95277
C         -2.42185         9.97828         0.87622
C         -1.27987         9.35831         0.49050
C          0.02478        10.15394         0.47028
C          1.27179         9.29994         0.62875
C          2.40952         9.77373         1.18393
C          3.57102         8.84514         1.50974
C          4.91185         9.49356         1.81296
C          6.09708         8.87007         1.59243
C        -11.32066        -0.66228         0.16063
C        -10.05754        -1.45436         0.13871
C         -8.79748        -0.70429        -0.16002
C         -7.55349        -1.43401        -0.51647
C         -6.36943        -0.76074        -0.63108
C         -5.09643        -1.48528        -0.59604
C         -3.82763        -0.74517        -0.82583
C         -2.51123        -1.42835        -0.70681
C         -1.34498        -0.73288        -0.80543
C         -0.02832        -1.45044        -0.70962
C          1.26528        -0.66832        -0.49677
C          2.50216        -1.51697        -0.75434
C          3.80342        -0.81336        -1.04252
C          5.07819        -1.33499        -0.36581
C          6.35368        -0.83162        -1.05337
C          7.62778        -1.56498        -0.78986
C          9.01928        -0.91613        -0.94159
C          9.93933        -1.37089         0.26497
C         11.31111        -0.74612         0.15453
C        -10.02983        -2.92778         0.02247
C         -8.84834        -3.63812        -0.16574
C         -7.57250        -2.94487        -0.63042
C         -6.34526        -3.52883         0.04828
C         -5.08114        -2.78207        -0.17103
C         -3.80542        -3.44932         0.13620
C         -2.51134        -2.92997        -0.48692
C         -1.30809        -3.30663         0.42860
C         -0.00350        -2.85433        -0.20248
C          1.27978        -3.48952         0.23016
C          2.47850        -2.82145        -0.04415
C          3.77753        -3.43268         0.38327
C          5.04913        -2.83956        -0.18380
C          6.23944        -3.56181        -0.06547
C          7.49637        -2.75368         0.18382
C          8.76694        -3.58202         0.21140
C          9.95587        -2.87269         0.26746
C         -8.79146        -5.05851        -0.10609
C         -7.54928        -5.78254        -0.08294
C         -6.34018        -5.00474         0.32008
C         -5.05869        -5.78146         0.62952
C         -3.80647        -4.90435         0.48042
C         -2.46958        -5.55729         0.28020
C         -1.30544        -4.78601         0.81202
C         -0.02640        -5.53656         0.97284
C          1.24079        -4.83536         0.70227
C          2.45354        -5.65175         0.54075
C          3.73657        -4.93789         0.26654
C          5.00960        -5.66289         0.63697
C          6.25372        -4.95394         0.17916
C          7.47838        -5.71801         0.25317
C          8.71686        -4.99420         0.23839
C         -7.44671        -7.12566        -0.37462
C         -6.14630        -7.88123        -0.57789
C         -4.92284        -7.06802        -0.15690
C         -3.70109        -7.61295        -0.32982
C         -2.40110        -7.03542         0.07201
C         -1.29286        -7.79648         0.63540
C         -0.07496        -7.05190         1.00911
C          1.22275        -7.83515         1.07674
C          2.56629        -7.09418         1.05746
C          3.63591        -7.79758         0.23146
C          4.98702        -7.08410         0.05143
C          6.16883        -7.90643         0.60400
C          7.44612        -7.11485         0.39313
C         -6.15745        -9.25537         0.11718
C         -5.11612       -10.09622         0.33556
C         -3.71287        -9.76070         0.05785
C         -2.64163       -10.05610         0.83498
C         -1.36036        -9.25204         1.09646
C         -0.03609        -9.93439         0.72324
C          1.15952        -9.29650         0.76103
C          2.48535       -10.06143         0.73143
C          3.61605        -9.27389         0.07347
C          4.93625        -9.92103        -0.21132
C          6.10878        -9.29073        -0.02245
O         -9.70868         1.05429        -1.69588
O          6.48051         4.95026        -1.83285
O          9.99207         1.19733        -1.89127
O         -3.69838        -3.89275         1.52815
O         -0.83809        -5.02506         2.15418
O         -3.56836        -8.83849        -1.01024
O          0.52346        -7.50061         2.32205
O         -0.26713         5.32568         1.35802
O         -3.92339         0.24661        -1.90460
O          0.13085         1.87884         0.67667
O         -6.85748         1.44492        -1.74932
O          3.13413        -8.38752        -1.00557
O          3.15522        -1.62631        -2.06040
O         -6.60047        -4.03069         1.39169
O          1.74196         4.14401         0.67792
O         -5.06312         1.80275         1.33018
O          4.12060         4.51360         0.72981
O          2.15367         8.22852        -1.32604
O          5.20058         2.21912        -2.76069
O         -4.61112         5.19978         1.64603
O         -6.21435         4.23611        -1.32203
O          6.91529        -1.73499        -2.05041
O          0.03555        -2.58304        -1.64600
O          7.22416        -2.22063         1.48466
O          2.93084         3.58975        -2.56832
O         -1.74951         8.53706        -1.64067
O         -2.09407        -6.03749        -1.04335
O          3.08363         0.90463        -2.71240
O         -9.14977        -0.97121         1.23938
O          7.24602         0.90957        -2.57953
O         -3.46055         7.59125        -1.12803
O          3.01267        -5.49183        -0.84326
O          3.07390         8.23499         2.72538
H          3.76143         7.59953         3.04686
O          4.58899         8.50129        -0.66688
H          3.92071         8.87931        -1.28531
O         -4.02263         9.06019         2.37420
H         -3.36044         8.40195         2.67995
O          3.93842        -3.16133         1.82563
H          4.17087        -2.20021         1.91003
O          1.40721        -0.40346         0.91261
H          0.66640         0.15538         1.23979
O         -2.42689        -3.57288        -1.76524
H         -1.58321        -3.28904        -2.19590
O          5.24742        -6.93539        -1.35517
H          4.46603        -7.28895        -1.84223
O          0.71580         0.25638        -2.62581
H          1.53610         0.05771        -3.14692
O         -1.43012        -2.52433         1.63166
H         -1.33666        -3.13399         2.39941
O         -6.07226        -8.13823        -2.00339
H         -5.20376        -8.57397        -2.16597
O         -1.47056         4.01798        -1.84490
H         -1.66211         3.17858        -2.33710
O         -7.65397         2.47250         1.64448
H         -7.61159         3.28753         2.18621
O          8.54926         3.42519        -2.24389
H          8.12103         3.12673        -3.07402
O          4.65597         6.33778         2.25339
H          4.10365         5.51852         2.19378
O          5.08776        -0.77046         0.97767
H          5.92263        -1.17928         1.40638
O          5.11328        -5.65775         2.08554
H          4.94110        -4.72955         2.38349
O         -2.38853         6.18530         2.00280
H         -2.15544         5.39282         2.53248
O          2.51533         5.97950        -2.31348
H          1.77038         6.59552        -2.53117
O         -1.38918        -9.24542         2.55885
H         -0.63996        -8.68185         2.87575
O         -0.00030        11.20080         1.43439
H          0.06727        10.80415         2.32686
O         -6.15166         7.85823        -1.76246
H         -5.26082         8.16151        -2.04637
O          7.79500         2.55927         1.19274
H          8.21198         2.74053         2.06234
O         -1.69065         1.19227        -2.34491
H         -1.02907         0.76465        -2.94201
O         -7.42537        -3.27059        -2.04168
H         -8.08519        -2.76008        -2.55586
O          9.39214        -0.81353         1.47388
H          8.57472        -1.34870         1.73563
O         -5.13074        -6.16529         2.02064
H         -5.32525        -5.34122         2.52324
O          3.03510        -7.09606         2.42005
H          2.25770        -6.90685         2.99569
O          6.06240        -8.12600         2.03023
H          5.82716        -7.26275         2.45245
O          0.07824         6.96481        -1.93222
H         -0.58475         7.58170        -2.36519
O         -2.27652         0.92367         1.25013
H         -3.05893         1.19799         1.78185
O          9.62480        -1.43876        -2.12226
H          9.03113        -1.23001        -2.87668
O          2.85894       -10.33846         2.08796
H          3.06449        -9.48776         2.53391
H         12.20199        -1.35744         0.36310
H         12.38579         1.08466        -0.05056
H         10.56928         2.93269         1.04488
H          9.49068         5.11357         1.02370
H          8.36028         7.41073         1.06650
H          7.03264         9.39249         1.85035
H          4.91171        10.49559         2.27105
H          2.39637        10.76771         1.66074
H          0.07981        10.64249        -0.54188
H         -2.33943        10.98042         1.32865
H         -5.04936        11.14513         0.60033
H         -7.00569        10.01300        -0.23835
H         -8.42349         7.80140         0.17061
H         -9.74819         5.63651         0.02660
H        -11.01299         3.54337        -0.19704
H        -12.30922         1.21341         0.18252
H        -12.25386        -1.21062         0.36261
H        -10.95950        -3.48062         0.23370
H         -9.73417        -5.62751        -0.06529
H         -8.36180        -7.66473        -0.66922
H         -7.15118        -9.60785         0.44066
H         -5.31170       -11.03582         0.87821
H         -2.82420       -10.78578         1.64045
H         -0.05297       -11.02440         0.56321
H          2.34358       -11.04489         0.21825
H          4.91973       -10.94813        -0.60948
H          7.05213        -9.81117        -0.24999
H          8.40449        -7.64815         0.50631
H          9.65701        -5.55749         0.35333
H         10.92022        -3.40474         0.21069
