         276
 CSIRO Nanostructure Databank - Neutral Graphene Oxide Data Set
C        -11.07482         0.65846         1.12698
C         -9.89964         1.45326         0.77840
C         -8.63053         0.68213         0.50991
C         -7.62100         1.44103        -0.34464
C         -6.34726         0.64401        -0.55711
C         -5.03137         1.35185        -0.73344
C         -3.73426         0.66436        -0.36600
C         -2.47448         1.34078        -0.68711
C         -1.11773         0.63547        -0.76540
C         -0.08591         1.35497         0.14198
C          1.31183         0.75423         0.03660
C          2.45750         1.48886         0.07465
C          3.84314         0.89989         0.32893
C          4.86891         1.34269        -0.71519
C          6.12817         0.46022        -0.87939
C          7.43289         1.25708        -0.97765
C          8.72752         0.53694        -0.59944
C          9.74671         1.36506         0.15657
C         11.05117         0.65333         0.41989
C         -9.84404         2.80544         0.88335
C         -8.51219         3.52996         0.81540
C         -7.61909         2.94376        -0.31564
C         -6.30750         3.60868        -0.56706
C         -5.06132         2.84760        -0.86642
C         -3.77569         3.59137        -1.02510
C         -2.50450         2.76955        -0.99025
C         -1.21279         3.52915        -0.79881
C         -0.06505         2.86221        -0.12702
C          1.19223         3.67348        -0.09339
C          2.54934         3.01297         0.18170
C          3.70957         3.66995        -0.63038
C          4.87963         2.81429        -1.01357
C          6.17050         3.54663        -1.48857
C          7.45556         2.75114        -1.16238
C          8.66844         3.48331        -0.67622
C          9.82742         2.79280        -0.31606
C         -8.62812         5.03316         1.07843
C         -7.89578         6.00979         0.48471
C         -6.19999         4.96333        -0.53929
C         -4.96422         5.58922         0.06860
C         -3.75608         5.14504        -0.80989
C         -2.45551         5.68686        -0.20030
C         -1.24377         5.03893        -0.84177
C          0.02281         5.81760        -0.91125
C          1.28786         5.17173        -0.33801
C          2.41148         5.75845        -1.24373
C          3.72078         5.00225        -0.89285
C          4.95029         5.77507        -1.35478
C          6.19520         4.98821        -1.03968
C          7.38168         5.62483        -0.58381
C          8.60307         4.87789        -0.50153
C         -7.50528         7.33593         0.94515
C         -6.23852         7.85824         0.77418
C         -4.96900         7.11395         0.42833
C         -3.66481         7.91528         0.27659
C         -2.47315         7.20325        -0.29898
C         -1.41955         7.85041        -0.84689
C         -0.03971         7.34324        -1.14967
C          1.09189         8.02496        -0.35156
C          2.43015         7.37943        -0.99491
C          3.66216         7.80146        -0.23937
C          4.95466         7.20840        -0.75793
C          6.22040         7.83167        -0.25217
C          7.40674         6.98909        -0.20311
C         -6.05026         9.23697         1.18181
C         -4.88396         9.93372         1.07468
C         -3.65478         9.40962         0.52014
C         -2.56230        10.26800         0.52251
C         -1.29905         9.97771        -0.13008
C         -0.00321        10.30695         0.18994
C          1.20548         9.55260        -0.19986
C          2.43541        10.02547         0.19161
C          3.66262         9.19516         0.30078
C          4.97923         9.79821         0.62562
C          6.13526         9.11657         0.48985
C        -11.13939        -0.68379         0.99275
C        -10.14757        -1.49167         0.19140
C         -8.85415        -0.71353        -0.06470
C         -7.57186        -1.49650        -0.10501
C         -6.31851        -0.74299        -0.03988
C         -5.09724        -1.53615        -0.26777
C         -3.76852        -0.83489        -0.22939
C         -2.50673        -1.62000        -0.47017
C         -1.19020        -0.88709        -0.51746
C          0.02968        -1.54744         0.05699
C          1.35121        -0.77076        -0.07421
C          2.46974        -1.31012         0.79968
C          3.77437        -0.58321         0.68612
C          5.03759        -1.35720         0.62811
C          6.24946        -0.48549         0.35690
C          7.60749        -1.79527        -0.33816
C          8.84262        -0.95904        -0.52206
C         10.20341        -1.64982        -0.17454
C         11.17614        -0.68214         0.46764
C         -9.75447        -2.87406         0.77472
C         -8.82637        -3.68823        -0.11463
C         -7.67453        -2.90602         0.44770
C         -6.34207        -3.61540         0.75319
C         -5.14471        -3.01897        -0.03831
C         -3.84804        -3.86029        -0.09583
C         -2.50749        -3.09523        -0.13132
C         -1.22564        -3.70425         0.37779
C         -0.00655        -2.83086         0.53085
C          1.15315        -3.48163         1.29856
C          2.50433        -2.77225         1.13304
C          3.82259        -3.48245         1.05839
C          5.06762        -2.70802         0.78363
C          6.32928        -3.45777         1.05162
C          7.64805        -2.72029         0.87319
C          8.86700        -3.62445         0.69042
C         10.05636        -3.02505         0.43641
C         -8.82549        -5.00178        -0.40522
C         -7.61118        -5.88648        -0.19175
C         -6.43945        -5.14689         0.51753
C         -5.14461        -5.88016         0.53436
C         -3.86949        -5.11981         0.76954
C         -2.57873        -5.86497         0.97133
C         -1.27133        -5.02295         1.18363
C          0.01938        -5.79439         0.88910
C          1.28103        -5.00191         0.99209
C          2.51183        -5.46987         0.21776
C          3.82530        -4.94475         0.80048
C          4.98738        -5.64193         0.86556
C          6.27768        -4.95683         1.17598
C          7.54953        -5.71390         0.99753
C          8.73270        -5.06474         0.84476
C         -7.06985        -6.65600        -1.38887
C         -5.94589        -7.41405        -1.26954
C         -5.05407        -7.23863        -0.08019
C         -3.77622        -8.01434         0.06633
C         -2.51198        -7.29333         0.49721
C         -1.30351        -7.82898         0.11777
C         -0.04812        -6.97887        -0.06114
C          1.26079        -7.75052        -0.06515
C          2.52368        -6.97896        -0.02443
C          3.79530        -7.76080         0.16210
C          4.98805        -7.15672         0.89566
C          6.28883        -7.77574         0.27246
C          7.50951        -7.23508         1.03939
C         -5.40620        -8.20157        -2.37473
C         -4.30646        -8.96654        -2.23129
C         -3.68873        -9.24511        -0.86820
C         -2.30141        -9.80092        -0.96141
C         -1.22209        -9.18375        -0.44153
C          0.07448        -9.95185        -0.39525
C          1.30972        -9.11727        -0.17717
C          2.54711        -9.85473        -0.06039
C          3.74155        -9.23379         0.18580
C          5.00629        -9.93782         0.33924
C          6.18965        -9.28576         0.34855
O          6.85403         0.00885         1.35346
O         -1.82198        -1.43347        -1.74308
O          7.70352         1.84302        -2.27945
O         -8.21927         2.21092        -1.42099
O         -5.38764        -2.49235        -1.37150
O          0.88560        -5.92301         2.05169
O          2.19267         5.49843        -2.54523
O         -4.04040         7.28314         1.55891
O         -4.55118         3.25328        -2.21167
O         -8.30623        -1.06858        -1.35081
O         -6.02299        -5.86453         1.71802
O         -1.60224        -3.83094        -1.01334
O         -3.71985        -0.00336         0.97350
O         -5.69545         0.72439        -1.87340
O          4.91549        -7.54419         2.23379
O          3.46120        -7.23265        -1.16570
O          3.27327        -3.05566         2.35185
O         -3.43806        -5.41814         2.10015
O          3.50256         7.94992         1.19025
O          4.37739         1.80402        -1.98769
O          0.30223         3.54545         1.09300
O          6.26326        -4.09562         2.37253
O          2.96166        -0.57187         1.94023
O          2.86156         3.36324         1.49580
O         -7.33285         5.72226        -0.77262
O          5.67797         8.07814        -1.66968
O         -0.61394         5.31837        -2.12826
O          9.06203        -0.26409        -1.78024
O         -1.53446         9.17465        -1.25844
O         -4.89524        -8.22363         0.99602
O         -8.57100        -2.69752         1.65548
O         -1.57195         3.04779        -2.10978
O          0.81076        -3.29810         2.68275
H          1.64934        -3.34998         3.19911
O         -8.11494        -6.88796         0.72293
H         -7.42207        -7.02662         1.41438
O          5.93564        -0.28401        -2.08911
H          5.61036         0.36602        -2.75749
O         -4.48005       -10.32288        -0.30833
H         -5.08501        -9.91082         0.35639
O          4.83160         5.93370        -2.79333
H          5.21093         6.81943        -3.00984
O         -3.94709        -4.52843        -1.39172
H         -3.93089        -3.83488        -2.08904
O          7.47280        -7.68854         2.38317
H          6.51553        -7.63228         2.68706
O         -1.28385        -4.65949         2.56084
H         -0.43394        -4.95161         2.96925
O          0.20631       -10.68307        -1.62173
H          1.07497       -11.13408        -1.62432
O          6.11802         3.59761        -2.93262
H          5.45398         4.28494        -3.19494
O         -2.34804         5.23839         1.17157
H         -1.55038         5.64457         1.57485
O          9.13085         1.50245         1.48576
H          9.79005         1.89701         2.09435
O          0.17161         7.62147        -2.53961
H         -0.22577         6.88422        -3.05693
O          1.78371        -1.05054        -1.43830
H          1.12467        -0.63353        -2.04225
O         -0.54987         0.75325        -2.09062
H         -1.15940         0.30206        -2.71694
O          7.10378        -2.38866        -1.43316
H          7.23620        -1.80566        -2.21960
O          6.40492        -7.34731        -1.08992
H          5.60629        -7.64010        -1.58148
O        -10.79787        -1.74201        -1.07556
H        -10.09891        -1.70666        -1.76967
O         -6.00954        -3.37308         2.12033
H         -5.90709        -4.24929         2.56827
O          1.60022         5.62005         0.97855
H          2.12201         4.88936         1.43459
O         -0.19347        -6.39024        -1.38374
H         -0.21577        -7.11606        -2.04216
O         10.83576        -1.96868        -1.44373
H         10.69802        -1.19408        -2.03845
O          2.40675        -4.81502        -1.07199
H          2.88849        -5.37697        -1.72069
O          0.80455         7.73169         1.02690
H          1.65126         7.82643         1.53194
O         -0.52924         1.14661         1.48988
H         -0.08341         1.82400         2.05022
O         -7.75452         3.08792         2.01394
H         -8.11382         3.55593         2.79764
O         -4.89744         4.88847         1.33269
H         -4.21457         5.35118         1.87909
O          2.60739         7.95151        -2.28450
H          2.38999         7.21615        -2.92587
O          7.92459        -1.96055         2.04923
H          7.36429        -2.30138         2.78081
O          4.37307         1.52952         1.51459
H          3.78867         1.29466         2.27040
O         -7.99876         0.42552         1.79161
H         -7.82114         1.30786         2.20945
O         -3.88920         5.75980        -2.09369
H         -4.30688         5.10040        -2.69810
H         12.13760        -1.11736         0.78270
H         11.87834         1.28204         0.78979
H         10.68895         3.38695         0.03366
H          9.51191         5.41143        -0.18438
H          8.33991         7.40611         0.20345
H          7.08200         9.56226         0.83142
H          4.98518        10.79714         1.08878
H          2.52802        11.07520         0.51515
H          0.14349        11.05833         0.98403
H         -2.69446        11.24506         1.01811
H         -4.87640        10.98818         1.39096
H         -6.93586         9.75818         1.57649
H         -8.25972         7.97460         1.43336
H         -9.08741         5.26438         2.05447
H        -10.74788         3.37774         1.14457
H        -11.91347         1.19245         1.60124
H        -12.04340        -1.21362         1.33082
H        -10.59216        -3.41390         1.27291
H         -9.78367        -5.53563        -0.50245
H         -7.67481        -6.72064        -2.30616
H         -5.91062        -8.12229        -3.34982
H         -3.92675        -9.54236        -3.08846
H         -2.19789       -10.81094        -1.38332
H          0.00420       -10.69411         0.46052
H          2.50207       -10.95469        -0.09851
H          4.97939       -11.03712         0.39209
H          7.12775        -9.85689         0.42440
H          8.44666        -7.63276         0.56457
H          9.65595        -5.65441         0.72716
H         10.96568        -3.64500         0.39341
