         470
 CSIRO Nanostructure Databank - Neutral Graphene Oxide Data Set
C         37.57057        50.11642        -0.59692
C         36.43036        50.79674        -1.01429
C         37.79419        52.70232        -1.59830
C         36.54278        52.09751        -1.51634
C         40.15037        48.52758        -0.47022
C         40.01482        49.91512        -0.24357
C         38.84429        50.71694        -0.64289
C         40.26183        52.71815        -1.35547
C         38.96030        52.04570        -1.16021
C         40.55296        53.56125        -2.46093
C         42.50245        48.56575         0.28094
C         41.33481        47.87235        -0.15017
C         42.40865        49.97607         0.41482
C         41.13444        50.54050         0.33270
C         42.67064        52.80897        -0.71934
C         41.30899        52.50209        -0.45900
C         42.89415        53.77497        -1.74358
C         41.80835        54.13105        -2.59420
C         44.92535        45.76187         0.88059
C         43.80548        46.44916         0.55738
C         44.90377        48.61807         0.98052
C         43.74034        47.88818         0.60468
C         44.85533        50.11218         1.04914
C         43.59178        50.85362         0.68787
C         45.05433        52.70222        -0.21093
C         43.76099        52.17552        -0.01823
C         45.23717        53.86723        -1.03729
C         44.19672        54.37849        -1.82770
C         45.49398        56.36454        -2.48652
C         44.36700        55.61703        -2.56117
C         47.51995        44.52866         0.29836
C         47.43370        45.83866         0.69885
C         46.18558        46.44674         1.31300
C         47.37172        48.66470         1.34455
C         46.13479        47.95090         1.15355
C         47.25451        50.12567         1.71574
C         46.15064        50.81935         0.93535
C         47.59728        52.70246         0.14295
C         46.23437        52.06485         0.38352
C         47.53538        54.22849         0.04340
C         46.55514        54.54230        -1.08052
C         47.74368        56.79800        -1.24556
C         46.69068        55.84749        -1.80686
C         48.00419        57.97484        -2.14272
C         49.97601        44.48664         0.46881
C         48.77534        43.87698         0.14579
C         50.01045        45.94559         0.65517
C         48.64171        46.65363         0.72205
C         49.90447        48.70755         1.40661
C         48.59115        48.01495         1.28062
C         49.87063        50.16633         1.64799
C         48.56379        50.89327         1.69493
C         50.02237        52.85630         0.93484
C         48.66679        52.25573         1.10821
C         50.09769        54.17027         0.33852
C         48.92079        54.83240        -0.18768
C         50.26428        56.74888        -0.96025
C         49.00799        56.06713        -0.82998
C         50.41466        57.92412        -1.70600
C         49.23662        58.48319        -2.34393
C         52.42785        41.64162         0.42243
C         51.26106        42.35891         0.30227
C         52.39934        44.40600         1.00304
C         51.21598        43.74672         0.59537
C         52.37172        45.80945         1.36939
C         51.19582        46.58321         1.27755
C         52.30609        48.59392         2.23115
C         51.16743        47.95315         1.68231
C         52.29908        50.10828         2.52823
C         51.05382        50.91683         2.16338
C         52.33648        53.09221         1.74779
C         51.10882        52.30357         1.60589
C         52.50641        54.31735         0.95154
C         51.34137        54.85188         0.33795
C         52.73810        56.91612        -0.27071
C         51.38601        56.22929        -0.16475
C         52.86217        58.01608        -1.23961
C         51.71536        58.54750        -1.87690
C         53.13720        60.27536        -2.86967
C         51.90133        59.67893        -2.71996
C         54.85412        40.08048         0.79599
C         54.84419        41.50660         0.99825
C         53.63269        42.26384         0.84424
C         54.83058        44.31356         1.51705
C         53.61915        43.66480         1.12129
C         54.81119        45.73353         1.82301
C         53.56256        46.44512         1.81556
C         54.72508        48.26006         2.87338
C         53.50373        47.78560         2.31042
C         54.75408        50.40280         3.01697
C         53.56067        50.91956         2.52761
C         54.91312        52.98503         2.00443
C         53.60292        52.36007         2.23645
C         54.98481        54.29394         1.39539
C         53.78845        54.92415         0.83162
C         55.19144        56.75082        -0.11540
C         53.94279        56.15838         0.12519
C         55.28683        58.01234        -0.77505
C         54.14164        58.58803        -1.43673
C         55.56273        60.45566        -2.24418
C         54.28984        59.76893        -2.21541
C         55.76028        61.61665        -3.01870
C         57.28692        39.97823         0.93050
C         56.01639        39.35667         0.74028
C         57.26703        41.30145         1.67240
C         56.04163        42.16420         1.34761
C         57.27457        44.22995         2.03759
C         56.02355        43.55456         1.61229
C         57.28589        45.71789         2.20869
C         56.00688        46.43517         2.08044
C         57.26508        48.54725         2.78553
C         55.99273        47.77967         2.53554
C         57.29100        50.10819         2.93398
C         56.04791        50.92546         2.78590
C         57.32461        53.03017         2.55575
C         56.08656        52.27210         2.33625
C         57.39697        54.42092         1.95710
C         56.23109        54.89958         1.21501
C         57.59825        56.91992         0.65104
C         56.46106        56.01007         0.23002
C         57.52316        58.32166         0.22472
C         56.48950        58.76130        -0.72645
C         57.85923        60.76541        -1.32183
C         56.63414        59.98992        -1.41259
C         57.98735        61.97460        -2.08258
C         56.93946        62.35050        -2.94148
C         59.67454        37.32211        -0.13443
C         58.52333        37.95207         0.23889
C         59.72754        40.10614         0.45834
C         58.48579        39.34778         0.57607
C         59.72923        41.45100         0.81435
C         58.59118        42.05680         1.54580
C         59.70507        44.38512         1.24894
C         58.57414        43.54108         1.75104
C         59.71193        45.87236         1.47601
C         58.51718        46.53541         2.04798
C         59.72353        48.67652         1.88636
C         58.51361        47.88026         2.28030
C         59.75903        50.16248         2.14215
C         58.56167        50.82007         2.66732
C         59.87861        53.02130         2.64698
C         58.58952        52.28012         2.82137
C         59.86643        54.45459         2.23132
C         58.72407        55.06373         1.79586
C         59.92844        57.23301         1.44270
C         58.71359        56.43770         1.30415
C         59.97797        58.49889         0.88670
C         58.78738        59.15500         0.33502
C         60.18671        61.05524        -0.48150
C         58.93820        60.33983        -0.52015
C         60.28326        62.32028        -1.17808
C         59.17939        62.79549        -1.92809
C         60.34670        64.91978        -2.27133
C         59.23335        64.10273        -2.46567
C         62.10922        35.95583        -1.02610
C         62.06603        37.37519        -0.77679
C         60.91593        38.02880        -0.30942
C         62.14400        40.16284        -0.11016
C         60.93212        39.45376        -0.02647
C         62.16614        41.62139         0.06887
C         60.88869        42.30348         0.54866
C         62.23612        44.31907         1.33555
C         60.96632        43.66393         1.09059
C         62.25650        45.80245         1.59454
C         61.00283        46.57736         1.57341
C         62.23449        48.71161         1.51188
C         61.02598        47.96132         1.71509
C         62.25920        50.15992         1.65909
C         61.07083        50.88071         2.12033
C         62.36838        52.99986         2.31655
C         61.10530        52.24430         2.33020
C         62.39626        54.47075         2.23892
C         61.12350        55.23693         2.54430
C         62.33661        57.32077         2.00067
C         61.14792        56.63463         1.96727
C         62.36653        58.78131         1.81038
C         61.12987        59.37112         1.11518
C         62.58719        61.27189         0.28973
C         61.23997        60.60766         0.32404
C         62.52258        62.69394        -0.19592
C         61.44557        63.15464        -0.97587
C         62.70051        65.29631        -1.50110
C         61.45682        64.47994        -1.54762
C         62.71797        66.73347        -1.81893
C         64.52696        35.95328        -1.63204
C         63.23405        35.28692        -1.39259
C         64.56859        37.44446        -1.46740
C         63.28525        38.16285        -1.05948
C         64.57239        40.23855        -0.53591
C         63.36903        39.53307        -0.50539
C         64.61427        41.60040        -0.05330
C         63.46238        42.28182         0.27304
C         64.73847        44.44560         0.66924
C         63.53281        43.61907         0.91774
C         64.73393        45.85709         0.82116
C         63.55072        46.57450         1.35675
C         64.60208        48.73192         0.76746
C         63.45139        48.03751         1.17504
C         64.50276        50.20988         0.50639
C         63.42128        50.85897         1.33440
C         64.71354        53.07662         1.28310
C         63.61039        52.24484         1.76561
C         64.75754        54.41828         1.60364
C         63.59035        55.13742         2.07644
C         64.76776        57.38363         1.55238
C         63.65303        56.64867         2.34817
C         64.84679        58.90572         1.82331
C         63.63323        59.58229         1.82266
C         64.52714        61.96969         1.69264
C         63.31388        61.10543         1.66094
C         64.76436        63.05980         0.93645
C         63.52731        63.68905         0.32510
C         64.91749        65.73564        -0.26824
C         63.83784        64.80363        -0.63893
C         64.92041        67.02843        -0.74806
C         63.76766        67.52462        -1.47840
C         67.00810        33.10030        -1.07778
C         65.85172        33.77636        -1.10724
C         67.09804        35.94896        -1.33460
C         65.82490        35.19594        -1.55463
C         67.07606        37.41653        -1.19384
C         65.85499        38.10955        -1.19775
C         67.13420        40.27982        -0.85806
C         65.81562        39.58076        -1.03446
C         67.17237        41.60758        -0.17414
C         65.90225        42.29377         0.18832
C         67.10917        44.49008         0.03088
C         65.91474        43.77432         0.27363
C         67.09582        45.91483         0.13245
C         65.88872        46.60196         0.50307
C         67.02614        48.79792         0.33791
C         65.84334        48.05628         0.53035
C         67.01618        50.24705         0.34632
C         65.82893        50.93741         0.53210
C         67.10642        53.12838         0.54473
C         65.76699        52.44655         0.39493
C         67.20871        54.43342         0.93173
C         66.04762        55.14735         1.50301
C         67.35856        57.34469         1.27550
C         66.10090        56.63798         1.65476
C         67.36737        58.75520         1.48342
C         66.20780        59.48382         1.83344
C         67.47146        61.63622         1.57663
C         66.41520        60.89220         2.06926
C         67.35389        63.00793         1.00674
C         66.06155        63.81468         1.03506
C         67.39885        65.82039         0.04196
C         66.10627        65.19093         0.43866
C         67.34851        67.23526        -0.30110
C         66.09216        67.87401        -0.51410
C         67.20219        70.03997        -0.39878
C         66.05124        69.28016        -0.57518
C         69.52919        31.60025        -1.46016
C         69.53843        32.99954        -1.34109
C         68.25415        33.75796        -1.61226
C         69.54254        35.90922        -0.99005
C         68.25491        35.22699        -1.24938
C         69.59461        37.35676        -1.43448
C         68.32834        38.10672        -1.09123
C         69.60910        40.19779        -0.72682
C         68.40018        39.50486        -0.87817
C         69.62495        41.65134        -0.51483
C         68.37508        42.40783        -0.40502
C         69.52255        44.56559        -0.59890
C         68.34659        43.81068        -0.31538
C         69.51192        45.97147        -0.43568
C         68.30665        46.63239        -0.04950
C         69.55584        48.86351        -0.19384
C         68.30376        48.07428         0.22472
C         69.42686        50.31130        -0.39943
C         68.25137        50.98645         0.04219
C         69.46270        53.11342        -0.22894
C         68.27796        52.38725         0.11830
C         69.56574        54.49694         0.07204
C         68.55863        55.11517         1.01553
C         69.73492        57.29768         0.59503
C         68.50669        56.63078         0.90831
C         69.91935        58.69745         1.02101
C         68.69012        59.43672         1.52851
C         70.02083        61.64734         1.10961
C         68.75915        60.93237         1.51943
C         69.95307        63.07497         0.71927
C         68.62468        63.70359         0.54260
C         69.85424        65.80329        -0.18956
C         68.58453        65.14614         0.17934
C         69.82898        67.31085        -0.41447
C         68.53130        68.00235        -0.33571
C         69.69828        70.18027        -0.15771
C         68.47566        69.42442        -0.30930
C         69.68410        71.49020         0.34109
C         71.90269        31.50213        -1.02400
C         70.69665        30.85452        -1.29781
C         71.93511        32.89300        -0.93385
C         70.76689        33.65354        -1.10454
C         72.04911        35.87811        -1.39228
C         70.82558        35.13914        -0.98005
C         72.09131        37.22233        -1.42012
C         70.89690        38.00708        -0.98643
C         72.10272        40.29204        -1.13432
C         70.91436        39.49748        -0.75365
C         72.05129        41.62674        -1.31349
C         70.89893        42.42501        -0.82444
C         71.96831        44.67829        -1.18183
C         70.70277        43.87195        -1.26743
C         71.92989        46.01858        -1.04444
C         70.70102        46.73661        -0.76353
C         71.68930        48.90885        -1.45252
C         70.66737        48.13326        -0.81767
C         71.61888        50.27485        -1.50915
C         70.50724        51.01166        -0.97001
C         71.58911        53.22454        -1.42822
C         70.52148        52.44777        -0.91161
C         71.64356        54.58121        -1.19611
C         70.66824        55.22742        -0.38840
C         72.01466        57.34260        -0.28802
C         70.80649        56.63414        -0.02298
C         72.15148        58.69051        -0.03614
C         71.10452        59.45744         0.54679
C         72.35967        61.61106         0.34681
C         71.18449        60.85713         0.65615
C         72.36098        62.98475         0.35854
C         71.13901        63.74431         0.45923
C         72.26689        65.96627         0.23744
C         71.14054        65.18303         0.18736
C         72.23673        67.38837         0.02492
C         71.08147        68.06987        -0.23485
C         72.21733        70.33836        -0.19049
C         71.00688        69.54903        -0.59683
C         72.12697        71.58816         0.34200
C         70.86033        72.19115         0.59329
O         63.73813        38.12546        -2.46393
O         52.77471        53.19508         3.13657
O         57.25845        44.81288         3.38308
O         59.35701        52.77594         4.00772
O         69.86666        66.36467        -1.54929
O         57.69846        59.28229         1.32459
O         69.31985        48.47919         1.20396
O         59.43504        49.57604         0.75654
O         69.68073        61.46182         2.54836
O         67.79960        62.89861        -0.40833
O         65.40579        61.59953         2.70252
O         49.45592        46.65134        -0.50044
O         61.29076        42.32206        -0.89550
O         68.05925        33.71909        -3.10782
O         57.37964        49.18265         4.08467
O         66.33408        55.79718         2.82286
O         59.01049        42.65534         2.83185
O         63.07560        43.56836         2.30804
O         54.64216        49.26911         3.81613
O         70.58113        42.12919         0.53829
O         44.01116        50.73189         2.08761
O         71.01215        38.51503         0.36137
O         63.37184        52.43192         3.20327
O         63.82617        64.49666        -2.06126
O         41.00491        51.87230         0.75402
O         57.10915        54.19190         3.39248
O         51.83761        57.20492         0.84947
O         47.21293        54.60799        -2.39921
O         65.20025        35.46135        -2.85133
O         59.38328        45.30006         0.12597
O         66.45772        40.32888        -2.15408
O         69.63264        58.84770         2.46291
O         50.10399        49.67623         0.27931
O         70.19860        35.61697         0.27570
O         66.01488        64.98035         1.91083
O         61.31778        59.45379         2.59272
O         63.13700        46.15413         2.70214
O         51.35430        50.60666         3.54726
O         48.42598        52.07243         2.54226
O         66.70943        41.60945         1.22833
O         46.80253        50.11352         3.09561
H         46.89691        51.03377         3.43286
O         56.92792        55.37494        -1.02483
H         56.18038        54.85326        -1.38700
O         62.83544        64.35363         1.43772
H         62.64583        63.66528         2.12111
O         69.04234        54.86024         2.37467
H         68.34371        55.19855         2.98411
O         70.98732        69.55449        -2.07123
H         70.34684        68.86934        -2.36203
O         62.50498        61.68222         2.70340
H         61.83625        61.01468         3.00457
O         63.89310        56.83851         3.75097
H         63.15439        56.41066         4.23956
O         57.11237        40.92591         3.06907
H         57.60644        41.59821         3.59729
O         47.00708        54.75289         1.27379
H         46.94698        55.73368         1.17254
O         64.35942        57.26309         0.15701
H         64.75165        58.00045        -0.35642
O         65.34877        52.71375        -0.99019
H         64.66509        52.03150        -1.21592
O         69.67425        37.33601        -2.89326
H         69.10773        36.59804        -3.22224
O         69.11542        34.57753        -3.66265
H         69.03551        34.37309        -4.62619
O         48.07944        52.19302        -1.12786
H         47.70219        52.72703        -1.86156
O         64.02436        50.33433        -0.92375
H         64.57456        49.72386        -1.46122
O         70.36202        43.76451        -2.69226
H         70.30240        44.67378        -3.05435
O         61.10840        55.42266         4.00073
H         60.69322        54.62984         4.40886
O         47.13266        57.31212        -0.00698
H         47.74096        57.98687         0.36472
O         63.44224        60.52469        -0.66473
H         63.13290        60.74676        -1.56948
O         46.33664        46.20869         2.76197
H         45.70283        46.79672         3.22633
H         37.47686        49.09490        -0.20147
H         35.44643        50.31234        -0.94928
H         37.87439        53.72390        -1.99657
H         35.64737        52.64106        -1.84788
H         39.31531        47.95463        -0.89762
H         39.77085        53.78836        -3.19895
H         41.37059        46.78528        -0.29662
H         41.98121        54.82817        -3.42486
H         44.89677        44.66352         0.89963
H         42.90631        45.88357         0.27887
H         45.51376        57.36665        -2.93699
H         43.49989        56.02605        -3.09739
H         46.61730        43.90816         0.21576
H         47.13734        58.47189        -2.60061
H         48.74774        42.80392        -0.08441
H         49.34137        59.36701        -2.98721
H         52.41020        40.57234         0.17804
H         50.35585        41.83663        -0.03183
H         53.21162        61.17308        -3.49785
H         51.04682        60.11864        -3.25014
H         53.90931        39.55401         0.61087
H         54.97010        61.96900        -3.69484
H         55.95747        38.29739         0.45441
H         57.03294        63.24781        -3.56739
H         59.63447        36.24380        -0.33423
H         57.61009        37.35110         0.33940
H         60.34636        65.92276        -2.71980
H         58.38570        64.50415        -3.03580
H         61.18984        35.36951        -0.89612
H         61.83938        67.18694        -2.30032
H         63.17509        34.20868        -1.59605
H         63.74253        68.58959        -1.75038
H         67.04537        32.06555        -0.70815
H         64.91849        33.30438        -0.76662
H         67.12617        71.13578        -0.41100
H         65.09033        69.79355        -0.71832
H         68.59048        31.07893        -1.69525
H         68.72286        71.96011         0.59593
H         72.82448        30.92083        -0.88530
H         70.66421        29.76011        -1.38802
H         72.88669        33.39927        -0.71951
H         72.92876        35.29498        -1.70274
H         73.01859        37.73891        -1.70933
H         73.02127        39.74862        -1.40056
H         72.91797        42.15606        -1.73587
H         72.92996        44.17153        -1.34478
H         72.87108        46.58635        -1.06152
H         72.54761        48.39796        -1.90986
H         72.43885        50.82200        -1.99254
H         72.39038        52.75162        -2.01111
H         72.47899        55.15555        -1.61717
H         72.86506        56.81117        -0.73422
H         73.09014        59.18527        -0.32008
H         73.30163        61.08537         0.13820
H         73.29920        63.51645         0.15063
H         73.23648        65.51789         0.49513
H         73.18967        67.92877         0.11383
H         73.20583        69.91223        -0.41353
H         73.04052        72.14966         0.58523
H         70.81567        73.20518         1.01251
