         257
 CSIRO Nanostructure Databank - Neutral Graphene Oxide Data Set
C        -10.47346         0.86682        -2.59797
C         -9.48411         1.62432        -1.77128
C         -8.36459         0.85569        -1.12007
C         -7.29026         1.45437        -0.21990
C         -6.00424         0.72854         0.08956
C         -4.87862         1.37899         0.96422
C         -3.47806         0.79878         0.77555
C         -2.32886         1.54443         1.40419
C         -1.18094         0.77432         2.00157
C          0.11209         1.53919         1.89026
C          1.38368         0.76672         1.94648
C          2.65717         1.48600         2.38391
C          3.88725         0.76092         1.79766
C          4.89433         1.44527         0.91152
C          5.90415         0.63082         0.17194
C          6.59157         1.21528        -1.00413
C          7.74609         0.47567        -1.60535
C          8.62058         1.14900        -2.63504
C          9.97443         0.59714        -2.86393
C         -9.40964         3.09846        -2.01741
C         -8.33002         3.85298        -1.89927
C         -7.47840         2.86707         0.34112
C         -6.21081         3.64504         0.67654
C         -4.94119         2.92255         1.03105
C         -3.63858         3.76292         0.95682
C         -2.36775         3.03950         1.46702
C         -1.25281         3.77090         2.18765
C          0.08267         3.01216         2.26201
C          1.37571         3.78000         2.32962
C          2.68463         3.03120         2.13545
C          3.86124         3.73545         1.51421
C          4.67856         2.89500         0.55376
C          5.49681         3.52324        -0.53259
C          6.37135         2.64382        -1.39733
C          7.33941         3.28514        -2.32942
C          8.33364         2.54131        -2.96025
C         -7.28193         4.65627        -1.96088
C         -6.79289         5.66072        -0.94365
C         -6.16273         5.13265         0.36110
C         -5.08229         5.86476         1.15350
C         -3.81941         5.15877         1.54921
C         -2.57088         5.99003         1.87122
C         -1.26862         5.27286         2.19624
C          0.03966         5.98922         1.77764
C          1.36819         5.30368         2.17755
C          2.61893         6.02797         1.73471
C          3.83514         5.23544         1.25992
C          4.81462         5.83550         0.27858
C          5.88733         4.98831        -0.43393
C          6.37391         5.51354        -1.77777
C          7.19268         4.66610        -2.57338
C         -6.45832         6.96707        -1.61365
C         -6.14177         8.09782        -0.93236
C         -4.89796         7.27870         0.72191
C         -3.62795         8.05000         0.74436
C         -2.52711         7.46619         1.58846
C         -1.25903         8.25446         1.74595
C          0.04645         7.51901         1.96597
C          1.31922         8.27812         1.66252
C          2.67684         7.56582         1.47560
C          3.31748         7.93651         0.14036
C          4.59108         7.23614        -0.23744
C          5.35834         7.76544        -1.42096
C          6.16943         6.81504        -2.18285
C         -5.58743         9.37681        -1.37188
C         -4.53851         9.98011        -0.74128
C         -3.58696         9.46427         0.25724
C         -2.46724        10.19679         0.51633
C         -1.28470         9.68077         1.25375
C          0.01414        10.27717         0.89550
C          1.19619         9.64974         1.07686
C          2.43463        10.30550         0.50956
C          3.12636         9.31201        -0.40719
C          3.99824         9.81358        -1.49955
C          4.94218         9.03974        -2.05794
C        -10.48730        -0.47882        -2.63050
C         -9.27152        -1.26540        -2.27632
C         -8.12611        -0.54635        -1.62967
C         -6.95324        -1.35884        -1.12371
C         -5.75633        -0.63065        -0.52297
C         -4.60426        -1.41983         0.02629
C         -3.41922        -0.68858         0.65436
C         -2.45979        -1.43467         1.53539
C         -1.18884        -0.72351         1.95258
C          0.10286        -1.50946         1.72971
C          1.33344        -0.73426         2.22247
C          2.63190        -1.48361         2.27655
C          3.80572        -0.74436         1.66352
C          5.00990        -1.46122         1.10593
C          6.14000        -0.67264         0.52045
C          7.40071        -1.35888         0.11210
C          8.46409        -0.52638        -0.66383
C          9.40822        -1.37408        -1.51180
C         10.31974        -0.61034        -2.36842
C         -9.42514        -2.78514        -2.17695
C         -8.28600        -3.55163        -1.50645
C         -7.06473        -2.84746        -1.02026
C         -6.13216        -3.55458        -0.05667
C         -4.88153        -2.84567         0.41952
C         -3.76281        -3.64125         1.08910
C         -2.55547        -2.92543         1.66251
C         -1.31611        -3.71373         2.10401
C          0.00806        -2.96793         2.24094
C          1.31486        -3.75540         2.29963
C          2.63943        -2.99054         2.16383
C          3.86038        -3.69257         1.64394
C          5.14166        -2.94913         1.29913
C          6.32935        -3.67016         0.72170
C          7.49177        -2.85855         0.16175
C          8.55246        -3.61382        -0.64160
C          9.44185        -2.72124        -1.47675
C         -8.21623        -4.90156        -1.62440
C         -7.03075        -5.65892        -1.22505
C         -6.19433        -5.09432        -0.07341
C         -4.78431        -5.72872         0.06509
C         -3.73093        -5.12876         0.92425
C         -2.54876        -5.95613         1.39859
C         -1.33118        -5.25498         2.01170
C         -0.00947        -6.02533         2.03075
C          1.31238        -5.26617         2.13886
C          2.60737        -5.96015         1.69238
C          3.66848        -5.07273         1.07991
C          4.77493        -5.67265         0.29912
C          6.18484        -5.11350         0.26262
C          6.83269        -5.38135        -1.08419
C          7.90895        -4.67214        -1.50517
C         -6.83532        -6.90654        -1.72297
C         -5.52705        -7.65096        -1.56512
C         -4.82565        -7.13557        -0.30938
C         -3.08211        -7.88056        -0.31904
C         -2.43969        -7.38985         0.98609
C         -1.21232        -8.21028         1.31194
C          0.07464        -7.51281         1.69280
C          1.38649        -8.24246         1.42776
C          2.68581        -7.44405         1.40484
C          3.87852        -8.05635         0.67419
C          5.01883        -7.15549         0.20512
C          5.58069        -7.49135        -1.16685
C          6.41453        -6.59107        -1.76681
C         -5.60057        -9.15984        -1.49911
C         -4.58939        -9.90221        -0.99800
C         -3.37214        -9.37047        -0.38861
C         -2.37875       -10.17110         0.06783
C         -1.18914        -9.61445         0.77462
C          0.13042       -10.17789         0.45745
C          1.30413        -9.54418         0.69004
C          2.53961       -10.29164         0.23000
C          3.78129        -9.42496         0.06853
C          4.62504        -9.74752        -1.11028
C          5.39136        -8.81715        -1.71852
O          5.11935         1.26408         2.36082
O          5.60335         1.58137        -2.03123
O         -4.86845         5.43691         2.51336
O         -3.15550        -7.05139         2.18250
O          3.09196        -6.89572         2.68844
O          5.06832         5.85563         1.71606
O          2.25940         5.87818         3.15117
O          3.81784        -1.17723         0.25625
O          0.83058         8.09160         3.02985
O         -7.18053         0.56407         0.94861
O          6.84195        -6.00306         1.23322
O         -3.08507        -2.03430         2.69717
O         -0.83623        -3.20095         3.37503
O          3.61783        -3.58985         3.06514
O         -0.84620        -5.86614         3.21535
O          6.13295        -7.30892         1.16639
O          8.06287        -2.04543         1.21881
O         -4.33374        -4.49939         2.10280
O          4.09293         3.20854        -0.76794
O         -4.62829        -0.97064        -1.36421
O         -1.49271        -9.33484         2.18580
O         -7.48345         5.73470         0.32010
O         -1.45593         4.51010         3.41519
O         -6.42665        -2.24165        -2.17653
O          3.82616         3.50673         2.93606
O          0.76631        -8.25233         2.73703
O         -5.86485         3.32474         2.06769
O         -6.08079         7.98887         0.47190
O          2.31478         8.16042        -0.89258
O          0.85773         1.19432         0.65905
O         -3.95525         7.19582        -0.41988
O          1.96142        -1.05570         3.48434
O          0.71706         3.30315         3.53548
O         -6.10544        -2.92305         1.23555
O         -5.36010        -7.12097         0.92198
O         -8.55811         3.27651         0.68948
O          9.16081         0.23127         0.25214
O         -9.62458         1.08713        -0.40452
O          3.67299        -5.06624        -0.41023
O         -1.34914        -0.00038         3.20599
O         -1.73536         2.37973         0.32720
O          5.79902         8.01884        -0.02387
O         -8.17367        -0.70879        -3.08557
O         -6.74080        -5.68179         1.07590
O          1.40550        -4.64109         3.44005
O         -1.46949         9.36305         2.66944
O         -2.88945         0.18493        -0.39807
O          7.03791         5.08354         0.49908
O          7.54600         0.12707        -2.96499
O         -2.93813         6.96469         2.89290
O          4.44334        -9.22266         1.35298
O         -2.52602        -7.35613        -1.36371
O          6.20909        -3.43904         2.14988
O          9.39327        -4.30095         0.31555
H          9.55028        -3.67878         1.06002
O          7.98847         4.03637         0.13474
H          8.61334         4.07090         0.90105
O         -4.75591        -7.26901        -2.71873
H         -3.79160        -7.43636        -2.52921
O          2.25540       -10.98446        -0.99134
H          1.97006       -10.33764        -1.66852
O        -10.65488        -3.06056        -1.49207
H        -10.56079        -2.81776        -0.54792
O          2.71776         1.33405         3.80060
H          3.47424         1.87048         4.12716
O         -5.11132         0.92204         2.31016
H         -5.94417         1.33645         2.63625
O          3.34667        10.70563         1.53193
H          3.57751         9.91225         2.07758
O          0.05036         5.79091         0.32497
H         -0.76703         6.15897        -0.07475
O          0.26052        -1.63229         0.29295
H          0.43317        -0.73430        -0.08008
O         -3.43607         4.02473        -0.45417
H         -2.80611         3.34105        -0.79581
O          3.55161         8.09657         2.48865
H          3.24078         7.74410         3.35421
H         11.29818        -1.04993        -2.61394
H         10.67028         1.17505        -3.48919
H          9.06581         3.08108        -3.58188
H          7.75143         5.11924        -3.40695
H          6.57215         7.13960        -3.15481
H          5.51827         9.38803        -2.92785
H          3.77123        10.80856        -1.91065
H          2.14497        11.22446        -0.05966
H         -0.00028        11.25715         0.39273
H         -2.37169        11.20351         0.07982
H         -4.24584        10.96965        -1.13122
H         -6.04105         9.89359        -2.23229
H         -6.45917         6.97161        -2.71239
H         -6.71439         4.67087        -2.91249
H        -10.33486         3.56996        -2.39702
H        -11.32292         1.43957        -3.00033
H        -11.32102        -1.01935        -3.10168
H         -9.55052        -3.19098        -3.21453
H         -9.02661        -5.44880        -2.13032
H         -7.54743        -7.31017        -2.46046
H         -6.47427        -9.66106        -1.94105
H         -4.67276       -11.00041        -1.01607
H         -2.45897       -11.26711        -0.01251
H          0.15984       -11.13480        -0.08715
H          2.77615       -11.08123         0.98837
H          4.53708       -10.75910        -1.53103
H          5.94958        -9.07136        -2.63199
H          6.89475        -6.83887        -2.72541
H          8.41750        -4.96494        -2.43666
H         10.18669        -3.25091        -2.09314
