         429
 CSIRO Nanostructure Databank - Neutral Graphene Oxide Data Set
C          1.33567         3.32968        -0.56690
C          0.17303         4.03451        -0.86795
C          1.38344         6.15351        -0.75472
C          0.19055         5.42714        -0.96813
C          1.41560         7.62364        -0.86259
C          0.32278         8.35209        -1.37625
C          1.39427        10.47499        -0.80974
C          0.31372         9.73869        -1.34526
C          1.34882        11.92301        -0.70706
C          0.18031        12.65738        -1.01316
C          1.27151        14.78057        -0.48772
C          0.13772        14.03659        -0.91006
C          1.25530        16.23991        -0.45361
C          0.11281        16.97471        -0.96577
C          1.09417        19.09670        -0.20331
C          0.04489        18.32370        -0.89805
C          1.03197        20.58906        -0.07656
C          0.00752        21.37781        -0.81629
C          0.98438        23.44399         0.12600
C         -0.02198        22.71645        -0.75711
C          1.00504        24.93863        -0.10757
C         -0.11478        25.65772         0.22100
C          1.03165        27.82633         0.29176
C         -0.12083        27.07887         0.37205
C          1.06132        29.27687         0.52658
C         -0.12239        30.01820         0.73102
C          1.11733        32.11511         0.87891
C         -0.09246        31.39908         0.90200
C          1.19712        33.58961         1.27950
C         -0.06955        34.38498         1.09700
C          1.15126        36.47720         0.73008
C         -0.05591        35.73957         0.94456
C          1.20760        37.87990         0.77084
C          3.77851         3.31927        -0.11231
C          2.54114         4.02556        -0.32544
C          3.85477         6.17273        -0.22386
C          2.54502         5.44236        -0.39472
C          3.65076         7.60474         0.22964
C          2.53202         8.34986        -0.38803
C          3.72143        10.48879         0.10497
C          2.53857         9.76455        -0.35039
C          3.69970        11.92859         0.09385
C          2.49910        12.63555        -0.25956
C          3.62671        14.76795         0.33570
C          2.43579        14.05555        -0.14379
C          3.60007        16.27723         0.38066
C          2.37209        16.97090        -0.04011
C          3.59270        19.11760         0.15579
C          2.39559        18.40863        -0.00655
C          3.60591        20.57281         0.11129
C          2.30948        21.32129         0.37410
C          3.59158        23.52193         0.00096
C          2.30640        22.75082        -0.07732
C          3.52784        24.85686        -0.76448
C          2.23720        25.64640        -0.47644
C          3.57883        27.78221        -0.00528
C          2.24877        27.13813        -0.19965
C          3.55967        29.24855         0.30179
C          2.28202        29.99118         0.48555
C          3.61501        32.12608         0.71971
C          2.31230        31.39530         0.67488
C          3.61538        33.61111         0.62830
C          2.41380        34.28547         0.70730
C          3.64702        36.46526         0.42914
C          2.35364        35.71918         0.24695
C          3.65525        37.88786         0.45820
C          2.39983        38.57736         0.58632
C          6.19796         3.32568         0.24481
C          4.95213         3.97979         0.22671
C          6.17683         6.16885         0.68371
C          4.85643         5.42147         0.68304
C          6.15960         7.63220         1.08697
C          4.85321         8.35831         0.72370
C          6.11936        10.53340         0.95824
C          4.87633         9.81089         0.50317
C          6.14700        11.97553         0.53053
C          4.91806        12.64790         0.33254
C          6.12243        14.78749         0.23426
C          4.92656        14.07346         0.27060
C          6.08778        16.24558        -0.01632
C          4.86375        17.00862         0.20604
C          6.11922        19.11529         0.16984
C          4.86662        18.39777         0.13190
C          6.05582        20.57769         0.36757
C          4.78348        21.27476         0.09138
C          6.10548        23.49209        -0.15175
C          4.83262        22.69558        -0.44229
C          6.04054        24.95812        -0.38076
C          4.83338        25.62262        -0.55540
C          6.10926        27.83295        -0.36517
C          4.78366        27.13818        -0.74570
C          5.95617        29.32745        -0.62788
C          4.65956        30.04545        -0.35574
C          6.03163        32.21106        -0.19520
C          4.84354        31.42682         0.22747
C          6.07904        33.62184         0.11117
C          4.85387        34.30668         0.41058
C          6.08904        36.45592         0.43118
C          4.86448        35.75193         0.42953
C          6.12374        37.87802         0.36682
C          4.88709        38.57689         0.40097
C          8.62868         3.36813         0.42954
C          7.40169         4.04432         0.39330
C          8.63333         6.22358         0.48770
C          7.37084         5.50548         0.52482
C          8.62698         7.67849         0.49059
C          7.40004         8.39117         0.65610
C          8.60985        10.52070         0.50418
C          7.39559         9.78583         0.64549
C          8.61153        11.95591         0.48375
C          7.36722        12.68117         0.46208
C          8.61051        14.82833         0.28795
C          7.37466        14.10566         0.28840
C          8.63697        16.26652         0.22102
C          7.40411        17.01755        -0.05876
C          8.61069        19.17696         0.35717
C          7.35710        18.47210         0.18220
C          8.62445        20.64071         0.37742
C          7.32106        21.36956         0.44979
C          8.53585        23.58430         0.38522
C          7.27084        22.83639         0.16107
C          8.55998        25.00443        -0.09052
C          7.30796        25.69044        -0.50584
C          8.65784        27.69847        -0.88915
C          7.35930        27.04674        -0.81035
C          8.81740        29.05275        -1.23650
C          6.91426        30.16003        -1.12095
C          8.46015        32.16645        -0.86201
C          7.09415        31.55107        -0.76673
C          8.52358        33.62548        -0.43768
C          7.29173        34.30554         0.00826
C          8.58482        36.44613         0.22821
C          7.35984        35.68580         0.62029
C          8.61373        37.85376         0.19538
C          7.37674        38.55868         0.27785
C         11.07939         3.38442         0.62096
C          9.85803         4.06638         0.52123
C         11.10105         6.21297         0.44827
C          9.84078         5.51559         0.46074
C         11.10075         7.66134         0.03031
C          9.83093         8.39665         0.36617
C         11.08863        10.53881         0.35055
C          9.84328         9.81248         0.39064
C         11.08006        11.95474         0.39971
C          9.83325        12.66614         0.41600
C         11.07205        14.79916         0.48367
C          9.83629        14.10074         0.39315
C         11.05375        16.25342         0.66252
C          9.80590        17.00053         0.43395
C         11.10888        19.15160         0.59578
C          9.80755        18.44017         0.44885
C         11.10235        20.65747         0.52335
C          9.80018        21.34617         0.39564
C         11.08365        23.48683        -0.01727
C          9.86306        22.83925         0.63499
C         11.06762        24.86585        -0.28584
C          9.87175        25.62194        -0.34794
C         11.08162        27.78056        -0.53082
C          9.88096        27.02191        -0.59495
C         11.07006        29.18881        -0.45790
C          9.87269        29.86778        -0.80544
C         11.00736        32.06164        -0.17646
C          9.71149        31.32832        -0.54114
C         11.01781        33.55600        -0.13635
C          9.82239        34.24310        -0.06360
C         11.13846        36.43108         0.25002
C          9.82298        35.66806         0.29087
C         11.11053        37.89798         0.03340
C          9.87463        38.54950         0.05167
C         13.54149         3.41478         0.77529
C         12.31066         4.08574         0.70372
C         13.54942         6.27759         0.95813
C         12.28519         5.53209         0.62132
C         13.55863         7.71923         0.52860
C         12.36146         8.41050         0.37249
C         13.56615        10.55482         0.39376
C         12.34021         9.83632         0.34774
C         13.55128        11.98250         0.37558
C         12.31380        12.68093         0.39904
C         13.54843        14.82920         0.26614
C         12.30714        14.11153         0.45376
C         13.55389        16.21135         0.07885
C         12.39289        16.99729         0.42354
C         13.48328        19.12182        -0.21532
C         12.35902        18.45260         0.16953
C         13.63716        20.58788         0.20632
C         12.33705        21.36418         0.11990
C         13.58782        23.43959        -0.30569
C         12.31984        22.73663        -0.09926
C         13.61158        24.83921        -0.34541
C         12.34200        25.56167        -0.58116
C         13.59027        27.81387        -0.31450
C         12.35809        27.06807        -0.61591
C         13.56869        29.19261        -0.23125
C         12.30596        29.93430        -0.30591
C         13.57072        32.06958        -0.48343
C         12.28467        31.31204        -0.26812
C         13.53407        33.49481         0.01076
C         12.27249        34.27234        -0.11510
C         13.57330        36.39731        -0.36222
C         12.32496        35.65235        -0.09280
C         13.59239        37.87209        -0.20158
C         12.35824        38.56445        -0.11582
C         16.01500         3.39882         0.62989
C         14.79258         4.10694         0.68998
C         16.02131         6.23018         0.49685
C         14.81289         5.53048         0.63675
C         16.04070         7.67943         0.42749
C         14.80333         8.40447         0.46419
C         16.04648        10.50949         0.35699
C         14.81001         9.82720         0.38063
C         16.04153        11.97123         0.49503
C         14.78205        12.71810         0.33330
C         16.03824        14.83999        -0.05331
C         14.79401        14.10333         0.17176
C         16.01648        16.21559        -0.39526
C         14.66414        16.82138        -0.73120
C         15.95666        19.09021        -0.95207
C         14.65800        18.36290        -0.75388
C         15.93872        20.59216        -0.92632
C         14.80058        21.31301        -0.42642
C         16.06826        23.45560        -0.52156
C         14.82302        22.72521        -0.43704
C         16.06359        24.87231        -0.32135
C         14.82759        25.55480        -0.28808
C         16.08820        27.72226        -0.26624
C         14.80802        27.01704         0.08953
C         16.07266        29.20437        -0.15100
C         14.79751        29.94896        -0.03656
C         16.05941        32.07330         0.06274
C         14.81867        31.33051        -0.04579
C         16.11239        33.45691        -0.02758
C         14.83889        34.20809         0.05548
C         16.14011        36.37361        -0.09691
C         14.87358        35.65209        -0.28963
C         16.09755        37.80641        -0.16158
C         14.84051        38.50816        -0.19858
C         18.48834         3.36863         0.47785
C         17.23740         4.07848         0.51571
C         18.48315         6.20456         0.27846
C         17.24970         5.50620         0.42896
C         18.49657         7.62638         0.13540
C         17.25779         8.36368         0.23958
C         18.49598        10.50816        -0.00879
C         17.27497         9.80752         0.21639
C         18.55012        11.92752        -0.02920
C         17.34122        12.71206         0.31437
C         18.46320        14.81657        -0.35025
C         17.27455        14.14017        -0.04817
C         18.44953        16.20866        -0.52161
C         17.22766        16.93608        -0.60107
C         18.45992        19.10696        -0.85054
C         17.25343        18.37207        -0.83592
C         18.51662        20.52930        -0.90078
C         17.32118        21.35849        -1.05170
C         18.53644        23.46808        -0.47188
C         17.32181        22.78127        -0.65947
C         18.55705        24.86718        -0.16024
C         17.32136        25.58885        -0.16171
C         18.58170        27.71440         0.03770
C         17.35507        26.99103        -0.06546
C         18.60034        29.14323         0.13900
C         17.32624        29.85786         0.29073
C         18.59377        32.06825         0.27532
C         17.31028        31.36019         0.37660
C         18.56105        33.50281         0.24027
C         17.35061        34.19113         0.09971
C         18.57505        36.37799         0.10637
C         17.33465        35.65707         0.06288
C         18.55143        37.80521        -0.03233
C         17.32037        38.49723        -0.13666
C         19.67212         4.03757         0.34459
C         20.91134         6.16504         0.02391
C         19.70475         5.46929         0.22296
C         20.90854         7.54454        -0.17455
C         19.71910         8.28787        -0.12710
C         20.96991        10.50065        -0.41657
C         19.68135         9.74043        -0.55295
C         20.96545        11.86130        -0.41659
C         19.74476        12.60604        -0.30716
C         20.88724        14.84142         0.11085
C         19.77449        14.08932        -0.58919
C         20.89723        16.17891         0.03254
C         19.76025        16.89151        -0.62034
C         20.98468        19.13928        -0.46244
C         19.76292        18.38101        -0.80428
C         21.01568        20.47761        -0.52253
C         19.80286        21.23614        -0.88371
C         21.03414        23.47487        -0.25504
C         19.81775        22.78490        -0.70623
C         21.00710        24.79005         0.07588
C         19.78911        25.56314         0.02020
C         21.02055        27.74987         0.20360
C         19.81328        26.99057         0.10222
C         21.01908        29.12595         0.22951
C         19.80250        29.87905         0.20815
C         21.01666        32.10336         0.02918
C         19.79247        31.33809         0.22493
C         21.04211        33.45278         0.11632
C         19.83794        34.22707         0.60226
C         20.99849        36.44456         0.26513
C         19.82180        35.70484         0.26212
C         20.97990        37.84704         0.09874
C         19.78410        38.51966        -0.03822
O         16.12656        28.54420        -1.47636
O         17.18568        30.51600         1.59109
O          8.38985        24.65322         1.38012
O          0.50928        19.76168         1.01733
O          3.77149         7.91723         1.65170
O          7.84932        29.65208        -2.01820
O         10.56822        35.99481         1.53655
O         20.02045        17.46658        -1.94894
O         11.86751        16.72497         1.77327
O          4.58593        31.54351         1.66092
O         14.24827        35.93715        -1.59431
O          6.73802        16.59935        -1.29854
O         16.46562        21.10104        -2.19071
O         12.40663        26.26221        -1.87710
O         16.83413        12.43577         1.66412
O         15.07979        18.75422        -2.11202
O          6.59648        21.01777         1.68906
O          3.46070        15.49176         1.62205
O          2.04978        26.63400        -1.57876
O         11.25370        19.93654         1.82909
O          8.57210        33.18838        -1.88200
O         10.09929        31.54343         0.86172
O          3.82194        28.26251         1.35492
O         19.96829        22.14875        -2.01972
O         14.14518        33.80526         1.30493
O          6.33933        27.76625         1.06662
H          5.52762        28.06482         1.54797
O          3.77294        23.87288         1.39837
H          3.59939        23.06800         1.93783
O          0.51565        23.29336         1.50367
H          1.04289        22.56906         1.92809
O          6.21500         7.64216         2.54979
H          6.17762         8.59283         2.82384
O          6.04341        10.53003         2.44526
H          5.22101        11.00393         2.69688
O          4.35760         5.35809         2.03357
H          4.41139         6.26810         2.41651
O         19.90612        34.18937         2.07311
H         19.80975        33.25181         2.34627
O         11.11734         7.60999        -1.45109
H         10.30088         7.14567        -1.73495
O         14.38405        16.36730        -2.09332
H         14.79794        17.03415        -2.69458
O          2.17993        35.63563        -1.23532
H          2.17164        36.55670        -1.57452
O          1.41382        33.56355         2.73634
H          2.24150        33.06330         2.90593
O         13.53360         6.35626         2.43916
H         13.58097         5.43617         2.77723
O         14.81091        27.02307         1.56200
H         14.03629        26.51109         1.87728
O          3.42068        24.54589        -2.18564
H          3.01379        25.32347        -2.63057
O          4.48517         6.25203        -1.53849
H          3.79437         6.47831        -2.19621
O         10.14983        22.95034         2.06020
H          9.64349        23.73311         2.38756
O         19.43892         9.67627        -2.01898
H         19.47907        10.59683        -2.35848
O          7.49525        35.48837         2.09004
H          8.44715        35.34435         2.28959
O          4.10853        30.28152        -1.70312
H          4.24785        29.44975        -2.21963
O         13.95943        20.49166         1.63944
H         13.11154        20.25876         2.09976
O          4.57163        27.44240        -2.15408
H          3.65774        27.13564        -2.37859
O          2.28343        21.33565         1.86134
H          1.75237        20.53483         2.11431
O          4.85894        22.43535        -1.87246
H          4.53196        23.23534        -2.35109
O         13.70363        32.21425        -1.94041
H         13.78494        31.31762        -2.33070
O         20.04311        14.17817        -2.02521
H         20.08005        15.13000        -2.26772
H          1.32106         2.23215        -0.50918
H         -0.76714         3.49181        -1.03890
H         -0.74289         5.95364        -1.20757
H         -0.54967         7.82674        -1.78714
H         -0.56640        10.26264        -1.74059
H         -0.72958        12.13257        -1.33323
H         -0.80249        14.54770        -1.15305
H         -0.71570        16.42666        -1.43340
H         -0.85438        18.84579        -1.25233
H         -0.74635        20.83282        -1.40422
H         -0.78925        23.28711        -1.30235
H         -1.02969        25.11125         0.49002
H         -1.06579        27.54935         0.67644
H         -1.09438        29.50793         0.76197
H         -1.04133        31.92435         1.07526
H         -1.03079        33.88465         1.28118
H         -1.00376        36.29930         0.99547
H          0.28627        38.44203         0.98694
H          3.80135         2.23562        -0.30729
H          2.40025        39.67595         0.62081
H          6.24238         2.24022         0.06469
H          4.88855        39.67720         0.39972
H          8.63768         2.26824         0.39737
H          7.38402        39.65815         0.25442
H         11.08385         2.28437         0.64125
H          9.84902        39.64470        -0.05275
H         13.55036         2.31522         0.81410
H         12.36798        39.66518        -0.13307
H         16.00565         2.29975         0.67799
H         14.87178        39.60783        -0.15345
H         18.47372         2.27172         0.55624
H         17.32802        39.59548        -0.20384
H         20.62272         3.48534         0.31145
H         21.85834         5.60797        -0.01768
H         21.86402         8.04271        -0.38710
H         21.92643         9.96832        -0.51017
H         21.91512        12.41253        -0.47889
H         21.70069        14.29816         0.61397
H         21.71832        16.75720         0.48074
H         21.90879        18.58095        -0.25886
H         21.95859        21.01331        -0.35053
H         21.99591        22.94587        -0.28489
H         21.94703        25.28617         0.35308
H         21.98676        27.22931         0.25014
H         21.98152        29.65047         0.30306
H         21.93624        31.56754        -0.24705
H         21.99058        33.98339        -0.05140
H         21.96576        35.94630         0.41785
H         21.92870        38.40152         0.10076
H         19.76753        39.61364        -0.14718
