         228
 CSIRO Nanostructure Databank - Neutral Graphene Oxide Data Set
C        -11.02370         0.70012        -0.71789
C         -9.86105         1.48064        -0.34455
C         -8.77934         0.71506         0.40461
C         -7.40025         1.52217         0.54870
C         -6.17805         0.74062         0.08566
C         -4.85237         1.44900         0.12368
C         -3.63088         0.69206         0.49749
C         -2.54955         1.45334         1.29011
C         -1.17251         0.76820         1.10569
C          0.02424         1.51331         0.62783
C          1.17975         0.72494         0.11387
C          2.36353         1.44572        -0.47188
C          3.62390         0.68956        -0.80668
C          4.87856         1.47198        -1.11426
C          6.17709         0.70096        -1.19313
C          7.45248         1.38699        -0.80741
C          8.44653         0.57237        -0.00797
C          9.74692         1.28461         0.28530
C         10.86334         0.46347         0.69129
C         -9.79833         2.84351        -0.49496
C         -8.57809         3.59999        -0.29136
C         -7.37420         2.91165        -0.03106
C         -6.12240         3.59275        -0.08003
C         -4.88432         2.91921         0.15913
C         -3.67281         3.62922         0.24279
C         -2.56363         3.03811         1.08667
C         -1.15452         3.73059         0.98118
C          0.03939         2.88171         0.51588
C          1.29693         3.55563         0.21113
C          2.42697         2.90182        -0.24749
C          3.72396         3.57854        -0.35707
C          4.88350         2.92262        -0.73455
C          6.17528         3.65648        -0.66097
C          7.48007         2.87937        -0.60425
C          8.64890         3.49298         0.06002
C          9.78142         2.65503         0.37274
C         -8.55159         5.01133        -0.42145
C         -7.34696         5.71842        -0.36410
C         -6.10412         5.00246        -0.29059
C         -4.86025         5.68662        -0.39371
C         -3.65528         5.02029        -0.12481
C         -2.35682         5.67479        -0.24781
C         -1.21199         5.04218         0.17858
C          0.10558         5.67273        -0.05104
C          1.35018         5.03017         0.52636
C          2.58771         5.72972         0.03696
C          3.76358         5.02191        -0.12046
C          5.01151         5.73450        -0.02218
C          6.21652         5.02493        -0.11817
C          7.45235         5.64934         0.20914
C          8.64447         4.84874         0.32379
C         -7.31447         7.16143        -0.26247
C         -6.13636         7.84917        -0.38934
C         -4.94687         7.09800        -0.94795
C         -3.61201         7.85614        -0.91033
C         -2.31867         7.07936        -0.77341
C         -1.05821         7.89052        -0.61868
C          0.19405         7.14362        -0.35662
C          1.39562         7.88481         0.03472
C          2.59780         7.16378         0.12959
C          3.82198         7.85716         0.33395
C          5.03365         7.12549         0.29816
C          6.27873         7.78130         0.55362
C          7.46165         7.02840         0.53988
C         -6.04964         9.27172        -0.19904
C         -4.86458         9.94297        -0.24218
C         -3.59015         9.28946        -0.47816
C         -2.44182         9.95309        -0.12566
C         -1.09857         9.37077        -0.27771
C          0.11336         9.97264         0.29392
C          1.34746         9.29178         0.31573
C          2.58127         9.94735         0.64643
C          3.80224         9.26516         0.61195
C          5.07379         9.90137         0.86869
C          6.24524         9.19545         0.84427
C        -11.03583        -0.66677        -0.72387
C         -9.85958        -1.46177        -0.41631
C         -8.57437        -0.66706        -0.28487
C         -7.43971        -1.43269         0.35777
C         -6.14167        -0.71411         0.40023
C         -4.86371        -1.44122         0.02300
C         -3.63567        -0.68731         0.50016
C         -2.44150        -1.46951         0.79605
C         -1.15732        -0.72529         0.94530
C          0.05519        -1.45733         0.37097
C          1.37155        -0.69685         0.62665
C          2.55516        -1.44991         0.03206
C          3.68381        -0.76750        -0.47942
C          4.87691        -1.48503        -0.70227
C          6.07311        -0.83065        -1.36493
C          7.40093        -1.55410        -1.06950
C          8.61592        -0.83575        -0.54736
C          9.73127        -1.63042         0.03537
C         10.83308        -0.89965         0.63527
C         -9.87308        -2.82817        -0.42542
C         -8.69103        -3.65689        -0.06282
C         -7.43573        -2.92522         0.30959
C         -6.11493        -3.58836         0.26152
C         -4.93991        -2.90307         0.39190
C         -3.69655        -3.60257         0.77505
C         -2.43034        -2.84458         0.81944
C         -1.17613        -3.61704         1.08665
C          0.12290        -2.85478         0.96387
C          1.43464        -3.56843         0.80228
C          2.58853        -2.85279         0.19853
C          3.73729        -3.60425        -0.16761
C          4.89437        -2.89154        -0.59117
C          6.11439        -3.63272        -0.91122
C          7.35926        -3.03110        -0.95170
C          8.71545        -3.76642        -0.91673
C          9.76261        -2.97378        -0.14987
C         -8.57586        -5.09754        -0.39015
C         -7.39211        -5.78149        -0.21160
C         -6.11494        -5.03911        -0.02581
C         -4.84026        -5.79757         0.15397
C         -3.66223        -5.10361         0.76742
C         -2.37889        -5.84836         0.77521
C         -1.13686        -5.10793         0.92729
C          0.07402        -5.76652         0.77991
C          1.39169        -5.08075         0.73883
C          2.56024        -5.77779         0.16174
C          3.71455        -5.06849        -0.14958
C          4.87522        -5.78300        -0.64932
C          5.93203        -5.04943        -1.11230
C          7.80255        -6.09507        -0.71275
C          8.66675        -5.15013        -0.28272
C         -7.30371        -7.21461        -0.28954
C         -6.12516        -7.93071        -0.07644
C         -4.87387        -7.26759         0.19218
C         -3.67732        -7.94985         0.36605
C         -2.43401        -7.22768         0.60906
C         -1.19994        -8.02084         0.71382
C          0.11298        -7.24037         0.71850
C          1.31005        -7.91988         0.21849
C          2.51150        -7.22380         0.00033
C          3.69160        -7.96607        -0.28028
C          4.94883        -7.30372        -0.78889
C          6.21787        -7.94588        -0.17778
C          7.47020        -7.38515        -0.13613
C         -6.10321        -9.37489        -0.10497
C         -4.93890       -10.06572         0.05845
C         -3.67140        -9.39810         0.25245
C         -2.48329       -10.10858         0.22192
C         -1.20886        -9.44344         0.27674
C         -0.03696       -10.08448        -0.00443
C          1.23790        -9.34281        -0.28041
C          2.50103       -10.07633         0.05530
C          3.69080        -9.38706        -0.03317
C          4.96112       -10.03157         0.25130
C          6.11732        -9.32375         0.26920
O         -9.34197         0.55465         1.65888
O          7.16655         1.12065        -2.19483
O          1.24206        -9.19976        -1.76633
H          2.13288        -8.87721        -2.02976
O          1.45134         5.24648         1.95602
H          0.70352         4.76853         2.40217
O         -5.54620         1.05777        -1.17481
O          4.99828        -7.62220        -2.21344
H          5.78350        -7.14435        -2.57255
O         -5.30074         6.92686        -2.35394
H         -4.45380         6.79839        -2.84329
O         -0.47073        -3.05622         2.25799
O          3.98788         1.04437        -2.19892
O         -0.83792         4.08317         2.35246
H         -1.72977         4.12996         2.81120
O         -5.19516        -5.29185        -1.18009
O         -7.21911         1.75435         1.95908
H         -8.00004         1.30540         2.39797
O          7.78029         0.41414         1.29331
H          8.44249         0.07908         1.93527
O          6.95721        -5.73211        -1.79028
O         -0.44372        -7.86085         1.95027
O          9.18558        -3.87695        -2.28205
H          9.10990        -2.97671        -2.67575
O         -3.92491        -4.40441         2.01843
O         -4.81692        -1.47411        -1.43497
H         -5.00405        -0.55471        -1.75499
O          5.83511        -1.04247        -2.78081
H          5.17920        -0.36575        -3.07001
O          1.27958         0.92248        -1.33956
O          7.06621         3.56014        -1.82345
O         -0.85994         8.86966        -1.66261
O         -0.89369        -0.12744         2.24718
O          1.66613        -0.62604         2.03271
H          0.81191        -0.47710         2.51810
O         -2.92176         1.22041         2.65214
H         -3.33276         2.06984         2.97182
O          0.37798         6.12049        -1.41028
O         -8.12483        -0.41420        -1.64548
H         -8.86872        -0.01757        -2.14691
O         -0.10049        -1.62278        -1.05334
H          0.21025        -0.80703        -1.50991
O         -2.86184         7.41627        -2.08897
O         -8.29668        -3.47355         1.36885
O         -6.86885        -0.98796         1.62598
O          8.47415        -1.08097        -1.97046
O         -3.20412         3.60924         2.23531
O          1.76670        -4.36329         1.97464
H         11.69907        -1.47982         0.98645
H         11.75963         0.97184         1.07716
H         10.70569         3.14829         0.71256
H          9.54874         5.31951         0.73865
H          8.41941         7.51459         0.77815
H          7.19705         9.70894         1.04562
H          5.08648        10.97896         1.08883
H          2.56385        11.02199         0.88128
H          0.06803        11.01509         0.64544
H         -2.52134        10.97112         0.28591
H         -4.84375        11.02287        -0.03387
H         -6.97541         9.81889         0.03443
H         -8.24370         7.69433        -0.00757
H         -9.49917         5.55847        -0.53444
H        -10.66313         3.37923        -0.91994
H        -11.93423         1.24681        -1.01057
H        -11.96418        -1.19828        -0.98406
H        -10.81885        -3.35486        -0.63421
H         -9.49476        -5.65532        -0.63081
H         -8.23045        -7.77636        -0.48489
H         -7.04729        -9.91279        -0.27534
H         -4.94001       -11.16473         0.01180
H         -2.50188       -11.19441         0.04510
H         -0.05904       -11.14674        -0.29227
H          2.48897       -11.16097         0.23525
H          4.95156       -11.09364         0.53460
H          7.05204        -9.82012         0.57220
H          8.27678        -7.95492         0.35452
H          9.32944        -5.36213         0.56868
H         10.64425        -3.53520         0.19872
