         300
 CSIRO Nanostructure Databank - Neutral Graphene Oxide Data Set
C         30.33927        32.02597         1.25307
C         30.24931        33.17739         0.77979
C         30.22536        36.31490        -0.09681
C         30.20513        37.50784        -0.41672
C         30.43501        40.87212        -0.65727
C         30.14517        42.06968        -0.62737
C         32.78750        29.29280         2.01946
C         31.70752        29.86542         1.74565
C         32.71913        31.94032         1.05330
C         31.48855        31.21847         1.40737
C         32.67423        33.23846         0.53577
C         31.37391        33.91846         0.21138
C         32.63452        36.20920        -0.27384
C         31.33043        35.35053        -0.22908
C         32.50206        37.36811        -1.32076
C         31.25070        38.32032        -1.04977
C         32.73245        40.42142        -1.18185
C         31.38439        39.81263        -1.03811
C         33.03691        41.60441        -0.52808
C         30.13976        43.49280        -0.48620
C         32.62525        44.32836        -0.45399
C         31.39591        44.13667        -0.50078
C         35.58350        27.79421         2.40527
C         35.36484        29.24206         2.19503
C         34.10756        29.74719         1.57715
C         35.30571        32.07072         1.28199
C         34.04265        31.20933         1.14126
C         35.17697        33.16639         0.16745
C         33.94633        34.09624         0.46404
C         35.19288        36.11913        -0.59699
C         33.85702        35.25952        -0.57432
C         35.05730        37.23117        -1.74730
C         33.86148        38.11637        -1.36887
C         35.22472        40.32676        -1.83517
C         33.94227        39.60427        -1.49716
C         35.26117        41.80599        -1.57732
C         33.94183        42.54286        -1.28311
C         35.16434        44.60884        -0.50810
C         33.98012        43.93090        -0.64522
C         35.48030        45.90228        -0.00616
C         38.06122        27.78055         2.32389
C         36.73149        27.32029         2.45304
C         38.02916        29.35277         2.38685
C         36.66853        30.02240         2.03860
C         37.73917        31.76785         0.60814
C         36.62527        31.27915         1.22319
C         37.64225        32.96680        -0.29151
C         36.50281        33.95165         0.03349
C         37.53023        35.75631        -1.38151
C         36.41667        35.23248        -0.80577
C         37.62938        37.21468        -1.78452
C         36.38331        38.01265        -1.93136
C         37.53721        39.92107        -0.67160
C         36.57500        39.55734        -1.83882
C         37.55816        41.45885        -0.39073
C         36.45821        42.37671        -0.86973
C         37.59431        44.28807         0.60199
C         36.51259        43.92607        -0.95696
C         37.89854        46.19723         0.35774
C         36.45305        46.53818         0.44394
C         40.53923        25.10646         2.99925
C         39.46349        25.71718         2.70055
C         40.60667        27.82875         2.41907
C         39.23805        27.09172         2.43431
C         40.51100        29.15522         1.63967
C         39.22691        29.93738         1.62269
C         40.27109        31.76589         0.22951
C         38.99076        30.88835         0.40804
C         40.22585        33.07184        -0.53414
C         38.84251        33.50025        -1.02925
C         40.55330        36.05084        -1.96589
C         38.50067        34.71900        -1.90137
C         40.01658        37.05660        -1.20730
C         38.88568        37.95414        -1.38427
C         40.17271        39.96753        -0.34569
C         38.91100        39.26298        -0.95049
C         40.12993        41.51179        -0.52974
C         38.85902        42.07077         0.10211
C         40.17859        44.18887         0.73866
C         38.86303        43.48821         0.58798
C         40.16708        45.58679         1.29204
C         38.86160        46.31589         1.42920
C         39.88240        47.64014         3.18481
C         38.89049        47.23143         2.50867
C         43.13631        25.04528         2.64093
C         41.83155        25.52670         2.68617
C         43.09075        27.68996         1.77085
C         41.73717        26.91424         1.86293
C         42.93816        28.85009         0.76781
C         41.61373        29.55099         0.67997
C         42.88054        31.69924         0.02383
C         41.59711        31.03730         0.41336
C         42.85254        33.14433        -0.39493
C         41.54544        33.75297        -0.93555
C         42.88320        35.97698        -0.85382
C         41.65488        35.19075        -1.40454
C         42.90273        37.41641        -1.36570
C         41.78167        38.14802        -0.68488
C         42.72311        40.37954        -1.16849
C         41.53404        39.45373        -0.86015
C         42.71552        41.34631         0.03214
C         41.41271        42.12108         0.02561
C         42.63240        43.89520         1.41288
C         41.35702        43.28087         0.89687
C         42.66033        45.37420         1.83465
C         41.27006        45.84446         2.29903
C         42.50812        47.59243         3.50942
C         41.28458        47.69006         2.71107
C         44.15391        25.54404         2.07211
C         45.42164        27.29839         0.76935
C         44.32980        26.79764         1.43596
C         45.36890        28.61696         0.02774
C         44.23430        29.53737         0.40137
C         45.33984        31.50045        -0.92909
C         44.20094        30.94812        -0.09711
C         45.39536        33.02369        -1.19069
C         44.15104        33.79468        -0.76075
C         45.41602        35.99456        -1.26168
C         44.13612        35.23206        -1.22225
C         45.39435        37.49497        -1.16304
C         44.20361        38.15602        -1.15426
C         45.31537        40.37992        -0.79226
C         44.12799        39.64661        -1.38237
C         45.22269        41.66143        -0.31775
C         43.95244        42.23134         0.11406
C         45.16368        44.04487         1.32073
C         43.91439        43.36866         0.87828
C         45.11770        45.11115         2.40371
C         43.76722        45.54055         2.97276
C         43.57640        46.96462         3.42157
C         47.77752        27.20816         0.03250
C         46.74095        26.78719         0.56447
C         47.94566        28.49755        -0.66321
C         46.59751        29.22421        -0.60991
C         47.93025        31.45642        -0.76874
C         46.61603        30.70744        -0.98100
C         47.92100        32.95144        -0.52690
C         46.62952        33.73973        -0.62484
C         47.93373        35.92808        -1.02224
C         46.63691        35.23019        -0.80363
C         47.95319        37.43554        -0.93534
C         46.69603        38.22740        -1.16237
C         47.67803        40.23035         0.13198
C         46.70762        39.76528        -0.97265
C         47.65026        41.71436         0.32374
C         46.49261        42.51044        -0.31782
C         47.64419        44.64893         0.66580
C         46.36888        43.86033         0.42243
C         47.42747        45.53178         1.82174
C         46.35101        45.91605         2.30861
C         50.56950        28.77077        -0.61851
C         49.21828        29.22684        -0.94335
C         50.50259        31.44096        -0.44392
C         49.26132        30.78709        -1.19958
C         50.52468        32.99715        -0.51151
C         49.22707        33.74313        -0.53563
C         50.45246        35.99788        -0.65505
C         49.22379        35.19464        -0.96775
C         50.37715        37.27087        -0.16213
C         49.07242        38.00717        -0.09679
C         50.18632        40.16638         0.89114
C         48.93384        39.41675         0.44771
C         50.18130        41.69544         0.91730
C         48.90976        42.47501         0.67414
C         50.21792        44.51208         0.92801
C         48.95854        43.98650         0.25814
C         51.66714        29.32139        -0.49683
C         52.95313        31.65715        -0.41757
C         51.89761        30.73858        -0.95996
C         52.93183        32.88042        -0.61415
C         51.80140        33.77432        -0.87663
C         52.86041        36.17143        -0.52981
C         51.76145        35.27315        -0.90460
C         52.75367        37.30834        -0.06126
C         51.57118        37.87938         0.65859
C         52.59683        40.29329         0.44575
C         51.50918        39.38919         0.85996
C         52.57328        41.53829         0.68804
C         51.51498        42.44294         0.80053
C         51.27567        43.81579         0.81080
O         47.12063        40.80854         1.33853
O         42.04280        28.65485        -0.36976
O         36.44932        41.83182         0.48635
O         40.21300        33.02602         0.93926
O         48.59856        35.44681        -2.25125
O         49.96643        33.57513         0.71151
O         40.54269        45.33089        -0.10065
O         48.62412        38.26468         1.28070
O         45.59955        28.49489        -1.40078
O         44.67984        30.61268         1.25767
O         43.71833        33.77945         0.62378
O         34.17658        30.11219         0.18907
O         49.37277        42.22192         2.01984
O         40.78584        37.35986        -0.04265
O         38.79830        30.07083        -0.68590
O         44.73758        35.54917        -2.50028
O         46.74407        44.99069        -0.42208
O         44.30708        39.81862        -2.90730
O         34.18376        38.86275        -0.16881
O         47.91017        31.99655         0.58073
O         30.95369        39.05744        -2.24671
O         45.43776        43.73463         2.74794
O         31.20634        34.32862        -1.20240
O         45.77636        30.84360        -2.16307
O         51.78427        34.49505        -2.12299
O         50.83723        39.69743         2.11012
O         41.88015        43.02655         2.31295
O         46.43158        34.62350         0.51267
O         35.83272        30.08518         3.26493
O         37.94698        32.51057        -1.63682
O         38.60357        34.61204        -3.11456
O         40.28692        30.29997         2.53135
O         38.84889        42.34917         1.52901
O         37.09773        37.51357        -3.11539
O         35.25561        41.29749        -2.93527
O         41.87106        34.08018        -2.33182
O         37.04816        44.41874        -2.00657
O         47.63891        37.93973        -2.25583
O         48.52241        28.52079        -1.99691
O         42.41910        31.67799         1.41836
O         28.98220        44.15291        -0.37960
H         29.13063        45.11738        -0.31718
O         40.39266        36.00204        -3.31070
H         40.76000        35.15408        -3.64594
O         33.67742        34.61834        -1.83036
H         33.39448        35.28043        -2.51071
O         32.47892        42.00418         0.62481
H         31.97336        41.27327         1.03519
O         43.44425        44.68513         4.05786
H         44.06430        43.91648         4.04239
O         34.06422        34.72239         1.75880
H         34.26857        34.01100         2.42552
O         32.77347        36.86452         0.98260
H         33.18173        36.23280         1.62746
O         42.67856        37.43036        -2.79926
H         43.30014        36.76602        -3.18470
O         50.39081        31.07405         0.91880
H         50.00315        31.83296         1.41819
O         42.80605        36.13870         0.56643
H         43.05071        35.29942         1.02948
O         35.27613        32.64921         2.60881
H         36.11886        33.15447         2.71228
O         35.43153        36.72700         0.67744
H         34.91975        37.56943         0.76114
O         34.94589        32.44160        -1.03440
H         34.57693        33.05044        -1.71840
O         51.48725        37.25304         1.92427
H         51.13287        37.90590         2.57286
O         34.77583        36.61036        -2.99868
H         35.64053        36.49076        -3.46734
O         39.94163        41.82308        -1.92636
H         40.81746        41.71518        -2.37927
O         42.76292        40.52385         1.23286
H         42.47509        41.09510         1.98500
O         42.47777        41.20012        -2.32129
H         42.63037        40.66454        -3.13089
O         37.30410        39.98376        -2.98644
H         36.87621        39.63910        -3.79728
O         36.87203        44.04470         1.69453
H         37.33330        43.37281         2.25480
O         32.24099        36.78021        -2.59071
H         31.81698        37.45449        -3.16799
O         51.96298        30.75325        -2.34964
H         52.83031        30.41391        -2.64940
O         45.47303        33.21734        -2.61213
H         45.71927        32.36091        -3.03841
O         41.31219        26.49629         0.57930
H         42.03646        26.02643         0.11690
O         49.37881        31.00749        -2.60087
H         49.14536        30.17896        -3.07608
O         43.08720        46.15392         0.71319
H         42.38774        46.09510         0.01872
O         40.90081        28.14163         3.78616
H         40.37172        28.94718         4.01668
O         40.06248        39.73934         1.07303
H         40.34001        38.80899         1.24136
O         36.85291        34.45253         1.35787
H         36.35873        35.30172         1.49313
O         46.74056        42.77949        -1.69773
H         47.52265        43.38018        -1.77058
O         37.03835        39.29379         0.51974
H         37.63389        39.54021         1.26112
O         38.38834        46.31918        -0.89738
H         37.79553        45.87448        -1.56863
O         43.43337        28.26715         3.03117
H         42.62131        28.36904         3.59230
O         49.09917        44.04668        -1.15978
H         49.09511        44.98831        -1.43391
O         40.87712        45.21574         3.47913
H         41.67177        44.99594         4.02687
O         47.32151        40.32748        -2.14766
H         46.79657        40.04786        -2.93251
O         41.42184        48.48515         1.60117
H         42.36854        48.66018         1.42548
O         38.28144        29.61119         3.77729
H         37.40351        29.67879         4.22473
O         33.26307        42.77181        -2.54283
H         33.75598        42.27602        -3.24149
O         45.30920        38.93504        -3.42538
H         44.78830        38.18709        -3.81052
