         630
 CSIRO Nanostructure Databank - Neutral Graphene Oxide Data Set
C         23.21743        27.22678         0.94470
C         23.26829        28.53264         1.36719
C         23.13332        31.51323         0.97093
C         23.10034        32.88025         0.80877
C         23.03417        35.83996         0.57106
C         23.00656        37.14733         0.24514
C         23.03641        40.09999        -0.12603
C         23.00297        41.48569        -0.06016
C         22.93180        44.40622         0.10359
C         22.91625        45.78905         0.01022
C         25.30026        25.08325        -1.36654
C         24.17757        25.58029        -0.71357
C         25.65030        26.84052         0.69734
C         24.32667        26.51267         0.33937
C         25.72083        28.81855         1.35359
C         24.43321        29.39123         1.28527
C         25.58014        31.53399         0.84370
C         24.36720        30.80444         1.02645
C         25.54855        32.95839         0.72066
C         24.29616        33.64802         0.71290
C         25.48896        35.78891         0.59769
C         24.28339        35.08023         0.62606
C         25.42455        37.29427         0.72921
C         24.28505        37.88156        -0.10297
C         25.43246        40.11167         0.26721
C         24.23494        39.39296         0.06361
C         25.41970        41.53950         0.29221
C         24.18062        42.23412         0.15537
C         25.36719        44.38107         0.42263
C         24.15883        43.67829         0.24162
C         25.31129        45.85592         0.73542
C         24.09795        46.53972         0.16136
C         25.31994        48.63329        -0.01185
C         24.13216        47.92922        -0.07373
C         27.72617        24.12918        -2.77564
C         27.79092        25.01141        -1.72300
C         26.60574        25.56430        -1.09293
C         28.03813        27.29414         0.04283
C         26.78101        26.54868        -0.08359
C         28.08439        28.66801         0.48944
C         26.90017        29.42583         0.88690
C         28.04527        31.57765         0.63770
C         26.84546        30.85487         0.75939
C         28.02884        32.99763         0.60930
C         26.77068        33.69150         0.62431
C         27.96859        35.85911         0.54178
C         26.74172        35.11504         0.59054
C         27.95306        37.29617         0.48509
C         26.72614        38.00766         0.47062
C         27.92220        40.15075         0.43121
C         26.70245        39.40943         0.38530
C         27.90077        41.58742         0.49747
C         26.64305        42.27769         0.43120
C         27.84760        44.43969         0.59188
C         26.61474        43.69761         0.48367
C         27.84247        45.87372         0.58808
C         26.59935        46.59091         0.49312
C         27.80769        48.71206         0.19369
C         26.57286        47.97685         0.23531
C         27.87766        50.04976        -0.19758
C         30.14083        23.83040        -2.81712
C         28.90444        23.56917        -3.34538
C         30.36353        24.69034        -1.63496
C         29.09966        25.34999        -1.10251
C         30.45498        27.37058        -0.49565
C         29.20588        26.69095        -0.47038
C         30.48097        28.74649        -0.09706
C         29.29313        29.38630         0.34024
C         30.52654        31.60201         0.34961
C         29.33790        30.82128         0.82988
C         30.49941        33.01673         0.41671
C         29.24631        33.73394         0.56911
C         30.42430        35.91690         0.46638
C         29.21466        35.16675         0.53790
C         30.41854        37.31793         0.40300
C         29.17523        38.02750         0.42609
C         30.38968        40.19162         0.52966
C         29.16023        39.45494         0.45096
C         30.36723        41.61270         0.66441
C         29.10537        42.31133         0.64713
C         30.29930        44.48655         0.83948
C         29.08727        43.75257         0.70314
C         30.30399        45.89268         0.76539
C         29.06568        46.57680         0.64091
C         30.32976        48.74899         0.44560
C         29.03186        48.07066         0.79687
C         30.31325        50.12491         0.13687
C         29.08175        50.75583        -0.17698
C         33.11313        20.42801        -2.30818
C         32.15382        21.21251        -2.96220
C         33.02759        23.23605        -1.86653
C         32.11534        22.58546        -2.72600
C         32.91391        24.64775        -1.48250
C         31.69216        25.34697        -1.37897
C         32.90997        27.41248        -0.78448
C         31.67775        26.70024        -0.89095
C         32.91524        28.82194        -0.49032
C         31.71545        29.48799        -0.17433
C         32.92376        31.65451        -0.14334
C         31.71601        30.91796         0.02601
C         32.91052        33.07168        -0.00741
C         31.70490        33.74058         0.25859
C         32.83536        35.93797        -0.16023
C         31.74743        35.20681         0.61373
C         32.88236        37.39718         0.22628
C         31.66160        38.06778         0.37649
C         32.85041        40.22598         0.60907
C         31.63626        39.50270         0.50853
C         32.82263        41.64896         0.79875
C         31.57968        42.32461         0.81949
C         32.83090        44.52346         1.00345
C         31.54948        43.76553         1.26545
C         32.80913        45.93158         0.88365
C         31.56230        46.63548         0.78876
C         32.80410        48.77412         0.52734
C         31.55788        48.04431         0.59830
C         32.79547        50.18851         0.33853
C         31.55860        50.87374         0.12432
C         32.75401        52.99121         0.05950
C         31.56225        52.26573        -0.01593
C         35.32444        18.79371        -1.12974
C         35.21561        20.26893        -0.83975
C         34.12209        21.04278        -1.56735
C         35.34083        23.13769        -0.96767
C         34.13135        22.45836        -1.42225
C         35.34197        24.57620        -0.93184
C         34.14134        25.30464        -1.11172
C         35.39427        27.42807        -0.88387
C         34.15005        26.72813        -0.94099
C         35.39305        28.86877        -0.72732
C         34.15690        29.54887        -0.51691
C         35.38564        31.68453        -0.37501
C         34.15649        30.95949        -0.35633
C         35.38449        33.10651        -0.23352
C         34.15509        33.81602        -0.10120
C         35.36751        35.94658        -0.01804
C         34.15421        35.21811        -0.05537
C         35.34760        37.37372         0.22632
C         34.11584        38.08094         0.33005
C         35.29197        40.19389         0.81973
C         34.10902        39.51420         0.57919
C         35.26947        41.61668         1.18516
C         34.03481        42.38285         1.02504
C         35.31270        44.54114         1.11665
C         34.06330        43.81050         1.07370
C         35.29178        45.97453         1.00953
C         34.05586        46.66224         0.84696
C         35.26862        48.82704         0.69351
C         34.03814        48.08414         0.68496
C         35.24615        50.23735         0.58773
C         34.02123        50.93764         0.38595
C         35.19029        53.27505         0.43319
C         33.98231        52.36242         0.23967
C         35.26489        54.39569        -0.57554
C         37.73838        18.75945        -0.62866
C         36.48810        18.11158        -0.94696
C         37.83118        20.19473        -0.92655
C         36.53319        20.97675        -1.07726
C         37.81315        23.10295        -0.44834
C         36.52995        22.42867        -0.84973
C         37.80260        24.57135        -0.75656
C         36.60878        25.27179        -0.84738
C         37.86979        27.41450        -0.88811
C         36.61984        26.72124        -0.93056
C         37.87708        28.89808        -1.14663
C         36.60316        29.58947        -0.73895
C         37.85712        31.73119        -0.55240
C         36.61565        30.99246        -0.55138
C         37.84487        33.11682        -0.42583
C         36.60939        33.82634        -0.27313
C         37.84048        35.96731        -0.02640
C         36.59739        35.24296        -0.11709
C         37.78276        37.37759         0.21778
C         36.58238        38.05931         0.39460
C         37.79242        40.29796         0.61140
C         36.59255        39.45403         0.98657
C         37.81689        41.65508         0.84151
C         36.58653        42.37778         1.24298
C         37.80286        44.52307         1.12540
C         36.56433        43.85019         1.14033
C         37.81763        46.00953         1.42603
C         36.52369        46.72422         1.03730
C         37.77740        48.88131         0.86635
C         36.50707        48.10774         0.87853
C         37.77411        50.29773         0.45920
C         36.50683        51.01553         0.67928
C         37.76060        53.16457         0.05910
C         36.50970        52.51294         0.53106
C         37.71434        54.45488        -0.47432
C         36.44210        55.00154        -0.87150
C         40.15250        16.02219         0.25172
C         38.93528        16.68514         0.04087
C         40.04363        18.88815         0.30757
C         38.86692        18.08891        -0.11277
C         40.15626        20.31003        -0.09575
C         39.07124        20.94224        -0.63806
C         40.30240        23.13656        -0.47244
C         39.08245        22.41117        -1.00620
C         40.30997        24.52097        -0.49807
C         39.11373        25.25356        -1.05421
C         40.31463        27.42454        -0.56797
C         39.07845        26.73200        -0.76612
C         40.31977        28.85778        -0.49064
C         39.12118        29.59956        -0.66596
C         40.34549        31.69132        -0.29027
C         39.12153        30.99723        -0.55612
C         40.36380        33.14449        -0.22189
C         39.12178        33.89439        -0.62636
C         40.30390        35.99629         0.19032
C         39.07524        35.30599        -0.10890
C         40.29306        37.37954         0.34100
C         39.04881        38.12083         0.11023
C         40.31202        40.31519         0.47457
C         39.04448        39.61334         0.24542
C         40.29283        41.71236         0.58807
C         39.04313        42.41380         0.74118
C         40.33488        44.49590         1.06750
C         39.02481        43.80553         0.97500
C         40.33854        46.01287         0.94681
C         39.04339        46.66979         0.84342
C         40.25319        48.76348         0.14431
C         39.07121        48.11805         0.79093
C         40.18352        50.22543        -0.15752
C         38.95076        50.98975         0.19113
C         40.23113        53.12107        -0.10512
C         38.97739        52.41184         0.04087
C         40.20331        54.50888        -0.29424
C         38.98465        55.17383        -0.88055
C         40.13644        57.36590        -0.40508
C         38.97716        56.64051        -0.53157
C         42.63442        16.05743         0.29783
C         41.35717        16.70546         0.43582
C         42.61381        18.91026         0.63544
C         41.33613        18.15861         0.65259
C         42.63715        20.27545         0.44913
C         41.41530        21.01565         0.12065
C         42.65307        23.14660         0.49994
C         41.44998        22.39625        -0.02367
C         42.70818        24.58269         0.06248
C         41.51806        25.26682        -0.23439
C         42.75022        27.40320        -0.15020
C         41.51926        26.69889        -0.34349
C         42.75778        28.81502        -0.06590
C         41.52858        29.54746        -0.17672
C         42.74179        31.67516         0.46841
C         41.51969        30.95769        -0.06062
C         42.83791        33.08359        -0.11242
C         41.53331        33.83319         0.00376
C         42.76148        35.91033         0.53674
C         41.56168        35.26144         0.24326
C         42.75512        37.31378         0.98738
C         41.46883        38.10744         0.83174
C         42.74939        40.24444         0.62367
C         41.54292        39.57936         0.63455
C         42.77095        41.66243         0.11507
C         41.53963        42.42456         0.52569
C         42.80502        44.53308         0.50499
C         41.57760        43.79904         0.67636
C         42.80188        45.96432         0.43020
C         41.58089        46.68871         0.51422
C         42.76856        48.75981         0.00351
C         41.56352        48.06542         0.22745
C         42.76972        50.21791        -0.25533
C         41.47418        50.96477        -0.33104
C         42.72375        53.08491        -0.19872
C         41.48854        52.42107        -0.09449
C         42.74742        54.55802        -0.09828
C         41.41066        55.29418        -0.12976
C         42.66503        57.42577        -0.27639
C         41.41223        56.73981        -0.36209
C         43.80327        16.71824         0.49564
C         45.13768        18.85215         0.75299
C         43.84204        18.12963         1.04462
C         45.14700        20.24531         0.50299
C         43.91448        20.98950         0.43045
C         45.17738        23.08436         0.18418
C         43.94703        22.38646         0.30851
C         45.19187        24.52429         0.08845
C         43.95569        25.25866         0.05382
C         45.22664        27.37096        -0.03663
C         43.98132        26.67533        -0.05494
C         45.23623        28.79452         0.03053
C         44.00433        29.51370         0.07867
C         45.25121        31.59163         0.38922
C         44.02849        30.91310         0.25528
C         45.21970        33.03169         0.72961
C         44.02534        33.82093         0.44637
C         45.28704        35.92899         0.70083
C         44.02952        35.19678         0.58676
C         45.30011        37.35654         0.75242
C         44.04914        38.06345         1.06587
C         45.29140        40.26628         0.58018
C         44.03022        39.58115         0.91394
C         45.27329        41.68987         0.41969
C         44.05323        42.40100         0.38269
C         45.26391        44.54282         0.19100
C         44.03440        43.82227         0.36553
C         45.25567        45.95601         0.03114
C         44.01918        46.66835         0.15785
C         45.24987        48.80413        -0.21801
C         44.00910        48.08002         0.00583
C         45.26963        50.21799        -0.20141
C         44.01094        50.96055         0.19978
C         45.20096        53.14820        -0.25712
C         43.97760        52.41851        -0.19815
C         45.22952        54.54664        -0.42104
C         43.93083        55.29848        -0.67463
C         43.86611        56.76960        -0.32708
C         47.57253        18.81729         0.67450
C         46.35888        18.16882         0.86058
C         47.62893        20.20913         0.41402
C         46.39492        20.93074         0.36081
C         47.65208        23.01083        -0.01088
C         46.41256        22.34784         0.17607
C         47.64874        24.45369        -0.28781
C         46.40956        25.22185        -0.06176
C         47.70060        27.36717        -0.11269
C         46.45324        26.64108        -0.07952
C         47.69262        28.76091        -0.03571
C         46.47470        29.49841         0.07789
C         47.75285        31.63296         0.34852
C         46.48571        30.91085         0.27270
C         47.77706        33.04702         0.49768
C         46.54869        33.79061         0.78594
C         47.74645        35.94157         0.41939
C         46.51492        35.24457         0.61071
C         47.73725        37.38626         0.43270
C         46.49919        38.08602         0.61989
C         47.73886        40.24600         0.45775
C         46.49451        39.53735         0.57555
C         47.72108        41.67138         0.38871
C         46.52097        42.39896         0.34045
C         47.67783        44.54700        -0.16890
C         46.49974        43.83579         0.13644
C         47.67969        45.94595        -0.43574
C         46.45845        46.66084        -0.28697
C         47.68626        48.78628        -0.69316
C         46.46821        48.08781        -0.41126
C         47.68261        50.21042        -0.65485
C         46.47626        50.91360        -0.36852
C         47.77028        53.13308        -0.50420
C         46.47943        52.38994        -0.18425
C         47.65589        54.57303        -0.78247
C         46.46023        55.22326        -0.67996
C         50.13153        20.18881         0.25036
C         48.87868        20.89952         0.22502
C         50.14474        23.01590        -0.13388
C         48.88601        22.30625         0.00023
C         50.21530        24.41358        -0.08950
C         48.97474        25.18617        -0.31013
C         50.15351        27.28327         0.20204
C         48.97702        26.64686        -0.08192
C         50.14480        28.74370         0.41860
C         48.99395        29.50091        -0.20124
C         50.21504        31.64489         0.29392
C         48.97114        30.94758         0.21398
C         50.22422        33.06815         0.29635
C         48.98078        33.77401         0.35647
C         50.21704        35.90192         0.06142
C         48.94995        35.20498         0.29184
C         50.21617        37.40325         0.11883
C         48.94605        38.11411         0.36440
C         50.24369        40.22591         0.28020
C         48.96870        39.52711         0.41723
C         50.24977        41.62773         0.11313
C         49.00048        42.38894         0.31366
C         50.13153        44.41617        -0.76830
C         48.96244        43.84843        -0.04555
C         50.08345        45.86451        -1.15516
C         48.87449        46.64706        -0.83414
C         50.12082        48.74265        -1.40717
C         48.90220        48.04549        -0.98294
C         49.97892        50.19276        -1.60695
C         48.87655        50.92691        -1.06407
C         49.89948        53.03592        -1.78220
C         48.88225        52.35136        -1.10257
C         51.32065        20.80008         0.00537
C         52.72908        23.00570        -0.15390
C         51.38927        22.24047        -0.25838
C         52.67437        24.45294         0.14480
C         51.44654        25.11199         0.14491
C         52.69017        27.31924         0.43633
C         51.39698        26.54139         0.63795
C         52.70086        28.70681         0.49605
C         51.43872        29.47239         0.57742
C         52.68260        31.61910         0.38061
C         51.45618        30.93415         0.36119
C         52.70180        33.04973         0.32971
C         51.47516        33.77572         0.29018
C         52.72119        35.91438         0.20646
C         51.49448        35.18931         0.24063
C         52.74271        37.33779         0.23236
C         51.47907        38.06741         0.61199
C         52.70091        40.21252         0.15039
C         51.47552        39.52905         0.27114
C         52.67833        41.62001         0.00254
C         51.46297        42.32139        -0.05633
C         52.66511        44.52966        -0.62699
C         51.44393        43.71081        -0.59573
C         52.66165        45.87150        -0.99609
C         51.40192        46.58809        -1.36810
C         52.67850        48.65726        -1.72896
C         51.36562        48.06843        -1.47914
C         52.84112        49.82297        -2.50243
C         50.87087        50.93477        -2.41163
C         50.86373        52.32693        -2.49014
C         55.11824        22.96540         0.40298
C         53.96848        22.29327         0.22985
C         55.17501        24.42996         0.19157
C         53.91169        25.17876         0.30529
C         55.17697        27.31578         0.52432
C         53.93072        26.58665         0.39033
C         55.16131        28.75001         0.60439
C         53.93278        29.45679         0.51037
C         55.15132        31.59877         0.56656
C         53.92465        30.88265         0.48271
C         55.16474        33.04626         0.42813
C         53.94193        33.76273         0.30872
C         55.19326        35.88786         0.05838
C         53.96000        35.18705         0.18844
C         55.19770        37.33465        -0.00414
C         53.96022        38.05334         0.13666
C         55.18998        40.20692         0.08099
C         53.97011        39.49527         0.14477
C         55.20918        41.66227         0.03798
C         53.92762        42.38301         0.11294
C         55.17788        44.55798        -0.38495
C         53.90068        43.88834        -0.13836
C         55.14091        45.93531        -0.71304
C         53.89560        46.61444        -0.95690
C         55.14883        48.69103        -1.44247
C         53.89969        47.99148        -1.34063
C         55.19689        49.95959        -2.05430
C         54.06129        50.49181        -2.65111
C         57.72112        24.49669         0.81478
C         56.49642        25.19689         0.40129
C         57.60175        27.35304         1.00801
C         56.40633        26.64159         0.66436
C         57.60609        28.77405         1.04727
C         56.37645        29.47947         0.80566
C         57.57714        31.68481         1.16857
C         56.35375        30.89118         0.79123
C         57.65491        32.98128         0.38011
C         56.38589        33.75374         0.30954
C         57.69041        35.81391        -0.22926
C         56.40604        35.13652         0.06110
C         57.67928        37.35340        -0.30816
C         56.40767        38.06542        -0.08544
C         57.67987        40.19407         0.02704
C         56.42739        39.48218         0.01607
C         57.66513        41.66503         0.14517
C         56.38665        42.38974        -0.02998
C         57.61521        44.54662        -0.35707
C         56.39905        43.83631        -0.23242
C         57.60004        45.96215        -0.50757
C         56.37438        46.65722        -0.73970
C         57.60509        48.75312        -0.93340
C         56.38457        48.05080        -1.02447
C         58.80758        25.19413         1.23752
C         59.99651        27.34700         1.54047
C         58.80783        26.63284         1.27258
C         60.02108        28.72858         1.50418
C         58.83893        29.48770         1.26065
C         60.06964        31.67268         1.25754
C         58.86814        30.90761         1.17582
C         60.12293        33.00953         0.95268
C         58.97559        33.70077         0.33981
C         60.11914        35.92090         0.16029
C         58.97155        35.16530         0.10960
C         60.11351        37.34102         0.05292
C         58.94672        38.06967        -0.08559
C         60.12729        40.25911        -0.27950
C         58.91032        39.52063        -0.04608
C         60.15071        41.61364        -0.38856
C         58.97600        42.41753        -0.04265
C         60.10190        44.67184        -0.03415
C         58.94376        43.84843        -0.54425
C         60.04174        46.01995        -0.05054
C         58.81853        46.70886        -0.41787
C         58.79004        48.09756        -0.60009
O         42.19246        55.02719         1.12549
O         53.82687        43.34049         1.23667
O         35.97920        41.87543         2.49080
O         31.22677        23.33417        -3.51771
O         44.11939        38.92809         2.23408
O         50.62899        46.03561        -2.49649
O         38.62446        48.71588         2.09532
O         40.49973        45.31572         2.25876
O         58.45167        42.19760         1.28906
O         50.65539        43.61992        -1.86698
O         42.23163        50.60229        -1.55254
O         56.01716        24.81808        -0.94302
O         51.76269        50.27601        -3.26860
O         47.40556        52.79170         0.88060
O         39.03565        38.97802        -1.12083
O         37.25223        20.53458        -2.25546
O         49.21636        43.44147         1.34360
O         41.89752        37.58511         2.13959
O         58.42720        32.94012        -0.83776
O         29.72332        24.21600        -0.39493
O         50.26314        36.75657        -1.17681
O         50.57124        29.12079         1.76619
O         36.62165        51.91229         1.86851
O         40.41640        18.63018         1.70468
O         25.83972        27.53220         1.90487
O         45.85950        33.33735         2.00671
O         57.68283        36.51580        -1.51252
O         52.18946        22.60208        -1.44549
O         39.93145        49.23554        -1.21553
O         48.30707        24.81219        -1.56497
O         34.94430        20.40644         0.58993
H         34.08119        19.98209         0.77773
O         43.74414        55.21706        -2.12989
H         44.50964        55.65733        -2.55580
O         31.45423        43.69909         2.74405
H         32.27586        43.27170         3.06948
O         39.25612        34.03916        -2.10064
H         38.49851        34.58260        -2.40710
O         43.08939        32.92071        -1.54493
H         42.78148        33.72864        -2.00673
O         37.92679        22.95316         1.00870
H         37.11834        23.32918         1.41710
O         42.45474        23.21735         1.96186
H         42.30019        22.30191         2.28116
O         32.11177        35.27586         2.02376
H         31.46362        34.74423         2.53164
O         42.55282        31.82777         1.90180
H         42.56980        30.93846         2.31237
O         36.74337        39.22795         2.43546
H         36.56509        40.10035         2.87051
O         28.88383        48.29546         2.26174
H         28.82410        49.26544         2.39790
O         32.44595        35.88902        -1.56674
H         33.12811        36.36307        -2.08637
O         59.12852        43.72477        -1.99701
H         59.15364        44.63143        -2.37047
O         39.27853        25.19644        -2.52177
H         38.52261        25.67901        -2.92051
O         43.95884        50.92403         1.66177
H         44.74890        51.39325         2.00553
O         29.51404        30.73347         2.29987
H         28.78062        30.17872         2.64335
O         37.92001        29.00276        -2.62571
H         38.00652        29.95545        -2.84538
O         43.77715        18.00136         2.50842
H         42.87039        17.70217         2.73570
O         34.98559        53.93244         1.71931
H         35.35543        53.32167         2.39902
O         42.70250        41.53357        -1.36465
H         42.68981        42.44198        -1.73523
O         25.10845        45.91447         2.21246
H         24.26709        45.44512         2.40035
O         24.58516        37.62108        -1.50057
H         23.86708        38.00745        -2.04321
O         49.29801        29.49568        -1.63913
H         48.52231        29.86104        -2.11453
O         39.08814        55.08653        -2.35367
H         39.22787        54.14432        -2.58799
O         39.02973        22.54179        -2.43956
H         39.85689        22.18276        -2.81923
O         51.38257        37.98374         2.07752
H         52.12033        38.50528         2.45904
O         25.08312        37.57288         2.12268
H         25.80175        37.21780         2.68634
O         57.36314        32.12253         2.56154
H         57.25766        31.31881         3.11344
O         37.90181        46.13681         2.88322
H         38.16542        47.07159         3.06594
O         51.25375        26.43569         2.10245
H         51.07167        27.35513         2.42247
H         22.22927        26.74109         0.90749
H         22.31262        29.00217         1.64831
H         22.18840        30.96254         1.07387
H         22.12443        33.38290         0.77906
H         22.08667        35.31964         0.77179
H         22.03659        37.66054         0.16739
H         22.09897        39.56005        -0.31940
H         22.03716        41.99017        -0.19115
H         21.98607        43.86431        -0.02255
H         21.97717        46.30846        -0.23277
H         25.16000        24.32108        -2.14486
H         23.17362        25.25186        -1.01770
H         25.30147        49.71537        -0.19524
H         23.20067        48.44885        -0.34419
H         26.75835        23.86279        -3.22086
H         26.97881        50.57407        -0.54982
H         28.82759        22.92955        -4.23355
H         29.06564        51.80956        -0.48196
H         33.10603        19.33915        -2.45177
H         31.42948        20.75662        -3.64873
H         32.70678        54.08667        -0.00102
H         30.62453        52.81932        -0.15116
H         34.40597        18.22498        -1.33954
H         34.32782        54.82729        -0.95503
H         36.47142        17.01376        -1.02268
H         36.44841        55.89359        -1.51542
H         40.17377        14.92450         0.18057
H         38.04256        16.07752        -0.16078
H         40.08115        58.46004        -0.29402
H         38.00772        57.15188        -0.43758
H         42.64596        15.00036        -0.00972
H         42.65294        58.52256        -0.17858
H         44.75006        16.17563         0.36325
H         44.79685        57.35259        -0.27063
H         48.49489        18.22834         0.75826
H         46.36707        17.09868         1.10834
H         48.54505        55.15067        -1.06671
H         46.43279        56.30656        -0.86934
H         50.13115        19.10586         0.43185
H         49.91537        54.13149        -1.82101
H         52.24096        20.20216        -0.04243
H         51.60201        52.84278        -3.11647
H         56.04467        22.41760         0.62560
H         53.95570        21.19739         0.31312
H         56.15232        50.48895        -2.16023
H         54.11230        51.40712        -3.25401
H         57.77566        23.40455         0.71091
H         57.63407        49.83892        -1.09416
H         59.73345        24.66512         1.50758
H         60.92031        26.78788         1.74803
H         60.97234        29.24538         1.68731
H         61.00155        31.17834         1.56974
H         61.06778        33.55436         1.08759
H         61.08472        35.43295         0.35401
H         61.07438        37.85787         0.17941
H         61.03977        39.69610        -0.51893
H         61.04606        42.12278        -0.77310
H         61.03080        44.15615         0.24990
H         60.91417        46.62595         0.23696
H         59.72107        48.67387        -0.49985
