         630
 CSIRO Nanostructure Databank - Neutral Graphene Oxide Data Set
C         23.59799        27.63509         3.34384
C         23.52875        28.92813         2.95364
C         23.45295        31.87580         2.57338
C         23.42230        33.24831         2.37419
C         23.27504        36.10790         1.60467
C         23.18016        37.43935         1.35437
C         23.10977        40.37707         0.67522
C         23.06839        41.73199         0.37138
C         23.02406        44.66591         0.12814
C         22.99480        46.03725        -0.02177
C         26.06267        24.81699         3.16034
C         24.91384        25.48572         3.42067
C         26.06217        27.64208         2.91745
C         24.91555        26.97419         3.62950
C         25.96744        29.02227         2.59438
C         24.71491        29.71152         2.66879
C         25.83143        31.81325         2.00166
C         24.64769        31.11409         2.39968
C         25.79929        33.25602         1.79799
C         24.56856        33.97707         1.98562
C         25.71309        36.09829         1.40767
C         24.54406        35.40926         1.71266
C         25.72690        37.56064         1.29430
C         24.36029        38.31109         1.35061
C         25.55206        40.39932         0.63624
C         24.33078        39.70078         0.84068
C         25.49236        41.79442         0.37347
C         24.25772        42.48013         0.25326
C         25.43733        44.63195        -0.22479
C         24.23901        43.93096         0.04562
C         25.41346        46.05359        -0.41371
C         24.18663        46.76426        -0.28454
C         25.37392        48.86019        -0.63828
C         24.19578        48.17944        -0.42607
C         28.62880        23.36750         2.93011
C         28.55853        24.81270         2.79355
C         27.31305        25.50418         2.90633
C         28.43633        27.60941         2.23757
C         27.26740        26.92250         2.70960
C         28.38432        29.01036         1.99372
C         27.14020        29.72479         2.16900
C         28.28107        31.84788         1.57386
C         27.04970        31.10458         1.89457
C         28.11661        33.18217         0.94371
C         26.93790        33.94230         1.37318
C         28.11333        36.03094         0.55125
C         27.06024        35.43016         1.46853
C         27.93445        37.42158         0.09454
C         26.82136        38.24163         0.61247
C         27.95682        40.31476        -0.02623
C         26.80811        39.65317         0.45858
C         28.04013        41.76837         0.02697
C         26.73826        42.56210         0.25880
C         27.88055        44.56699        -0.65578
C         26.70664        43.94442        -0.23171
C         27.82085        45.99650        -1.03699
C         26.60877        46.76739        -0.70922
C         27.88426        48.90296        -0.87065
C         26.61723        48.17418        -0.77725
C         27.93152        50.31345        -0.70766
C         31.08773        23.34095         2.72271
C         29.78317        22.66654         2.82563
C         31.04510        24.84340         2.47664
C         29.73206        25.52076         2.45047
C         30.81834        27.57751         1.58176
C         29.67061        26.90434         2.09007
C         30.71674        28.93055         1.22213
C         29.54232        29.65710         1.49306
C         30.67505        31.79905         0.62774
C         29.56469        31.12202         1.34577
C         30.60486        33.16984         0.31498
C         29.30187        33.87087         0.36326
C         30.43823        35.99334        -0.33486
C         29.24611        35.33987         0.17980
C         30.42705        37.40263        -0.52854
C         29.12368        38.10755        -0.56163
C         30.37912        40.32835        -0.67593
C         29.05677        39.61485        -0.80583
C         30.38527        41.69991        -0.78003
C         29.16282        42.47086        -0.60991
C         30.32875        44.53074        -1.42162
C         29.11556        43.84169        -0.81324
C         30.38832        46.02004        -1.13429
C         29.11894        46.76112        -1.23725
C         30.35510        48.89932        -0.90930
C         29.11043        48.21462        -0.99877
C         30.37269        50.31215        -0.73651
C         29.13116        50.99277        -0.64995
C         33.56468        20.52152         2.28306
C         32.38270        21.21301         2.49958
C         33.44417        23.30852         1.83783
C         32.31166        22.60718         2.31670
C         33.37099        24.73800         1.56262
C         32.20582        25.45698         1.81166
C         33.23016        27.48847         0.75726
C         32.19398        26.95512         1.70297
C         33.07835        28.83749         0.19672
C         31.80505        29.59612         0.45808
C         32.98340        31.72410        -0.18463
C         31.83680        31.06677         0.32528
C         32.95297        33.13701        -0.38522
C         31.73796        33.85476        -0.18068
C         32.87444        35.97637        -0.74789
C         31.66934        35.27873        -0.44136
C         32.86434        37.40689        -0.80199
C         31.63757        38.10417        -0.65751
C         32.88856        40.29044        -0.85714
C         31.65339        39.58351        -0.36989
C         32.86846        41.69881        -0.94512
C         31.63304        42.43632        -0.90954
C         32.84007        44.55106        -1.10965
C         31.61785        43.81858        -1.08417
C         32.84444        45.98049        -1.06551
C         31.57590        46.70366        -1.03147
C         32.80702        48.85683        -0.95177
C         31.59969        48.16536        -0.96068
C         32.84314        50.28729        -0.86327
C         31.63506        51.01436        -0.67784
C         32.95142        53.04585        -0.39521
C         31.72698        52.41068        -0.45131
C         36.11524        19.11381         2.02440
C         35.98317        20.48073         1.67781
C         34.73263        21.19134         1.86294
C         35.82090        23.28760         1.12500
C         34.66497        22.59555         1.60821
C         35.70255        24.66698         0.77515
C         34.52438        25.39356         0.97115
C         35.52165        27.48284        -0.05814
C         34.41793        26.79548         0.55669
C         35.49169        28.87187        -0.34805
C         34.27767        29.59813        -0.18963
C         35.37226        31.69324        -0.86205
C         34.20467        30.98704        -0.42518
C         35.34752        33.11831        -1.01812
C         34.14125        33.83766        -0.78932
C         35.32145        35.97802        -1.15939
C         34.11145        35.26297        -0.90726
C         35.30994        37.41365        -1.19884
C         34.09910        38.12308        -1.00561
C         35.30623        40.26999        -1.30232
C         34.09108        39.56532        -1.05175
C         35.29868        41.69964        -1.31007
C         34.08412        42.41451        -1.14204
C         35.30420        44.55543        -1.18026
C         34.07671        43.84229        -1.14179
C         35.29795        45.98152        -1.09099
C         34.05984        46.67019        -1.02872
C         35.25157        48.77069        -1.66305
C         34.13262        48.15585        -0.79763
C         35.28283        50.28983        -1.49548
C         34.09201        50.97670        -0.93519
C         35.46034        53.04105        -0.60445
C         34.16513        52.35159        -0.65542
C         35.53227        54.36331        -0.09798
C         38.45439        19.08951         1.33825
C         37.31794        18.44646         1.88088
C         38.34314        20.45619         0.94284
C         37.11684        21.16199         1.15887
C         38.21672        23.23436         0.43917
C         37.05355        22.57302         0.89346
C         38.24173        24.73598         0.50102
C         36.87751        25.31376         0.14167
C         38.02058        27.55585        -0.37705
C         36.77472        26.74483        -0.26915
C         37.91931        28.90172        -0.95063
C         36.64772        29.57591        -0.86241
C         37.71317        31.67053        -1.71007
C         36.55900        30.95543        -1.13346
C         37.76000        33.14141        -1.60145
C         36.55816        33.83874        -1.32913
C         37.77195        35.97786        -1.57589
C         36.54757        35.27090        -1.35316
C         37.76880        37.41533        -1.61268
C         36.54164        38.12243        -1.43099
C         37.74983        40.24322        -1.73511
C         36.53346        39.54583        -1.47838
C         37.71164        41.70860        -1.87739
C         36.50057        42.43688        -1.51283
C         37.78067        44.53749        -1.21407
C         36.52601        43.83708        -1.36997
C         37.75185        45.94051        -0.63930
C         36.52768        46.71262        -1.04505
C         37.80259        48.79836        -1.28098
C         36.57597        48.09411        -1.29148
C         37.87973        50.23324        -1.79055
C         36.59131        51.03156        -1.56239
C         37.90561        53.09429        -0.93827
C         36.65951        52.40327        -0.99357
C         37.93494        54.43910        -0.46683
C         36.73149        55.04027        -0.02999
C         41.11482        16.41954         1.45377
C         39.92241        17.09462         1.67737
C         40.76331        19.03091         0.44009
C         39.71029        18.39489         1.16457
C         40.63491        20.38504         0.00004
C         39.44944        21.11484         0.32214
C         40.50037        23.18046        -0.54931
C         39.38549        22.52030         0.06231
C         40.44348        24.61897        -0.74193
C         39.34959        25.35265        -0.31042
C         40.44036        27.48310        -1.15352
C         39.34224        26.81422        -0.44809
C         40.32429        28.82032        -1.51315
C         39.08078        29.52344        -1.41086
C         40.27775        31.68648        -1.94152
C         39.01491        30.91425        -1.90324
C         40.23708        33.11270        -1.90002
C         38.99239        33.82857        -1.76421
C         40.23619        35.97548        -1.81245
C         38.99411        35.26245        -1.73022
C         40.24235        37.40660        -1.84714
C         38.99246        38.13059        -1.80545
C         40.22542        40.32230        -2.06395
C         38.96520        39.55475        -1.87725
C         40.28181        41.73494        -1.65655
C         39.04564        42.49920        -1.77264
C         40.20198        44.47843        -0.65199
C         38.97360        43.86759        -1.27108
C         40.23072        45.97423        -0.85144
C         39.04090        46.67845        -0.88711
C         40.26954        48.80471        -1.00350
C         39.03033        48.10519        -1.05262
C         40.28253        50.24130        -1.11707
C         39.12800        50.96659        -1.33808
C         40.36048        53.13128        -1.31796
C         39.15225        52.41248        -1.25680
C         40.31001        54.55733        -1.08046
C         39.17335        55.18488        -0.50176
C         40.50810        57.21480        -0.09749
C         39.30500        56.52393        -0.03799
C         43.32094        16.25013         0.34077
C         42.12752        16.99185         0.66190
C         42.93225        18.88954        -0.72541
C         41.95499        18.30992         0.14415
C         42.82279        20.22986        -1.12387
C         41.69174        20.99904        -0.73515
C         42.69581        23.06389        -1.67613
C         41.62322        22.42228        -1.02225
C         42.81227        24.52240        -1.50633
C         41.59794        25.31824        -1.26613
C         42.81219        27.40842        -1.87826
C         41.60862        26.69720        -1.46198
C         42.77873        28.81386        -2.06238
C         41.44800        29.49510        -2.26451
C         42.72767        31.68508        -2.10053
C         41.48317        30.98864        -2.02934
C         42.70873        33.12108        -2.01492
C         41.47632        33.82323        -1.92433
C         42.70403        35.96142        -1.75480
C         41.46805        35.25938        -1.84515
C         42.70544        37.38936        -1.70730
C         41.48598        38.09114        -1.84471
C         42.77253        40.27415        -1.64575
C         41.53920        39.55234        -2.01648
C         42.74684        41.68290        -1.41426
C         41.49104        42.39207        -1.35724
C         42.69307        44.48775        -0.86009
C         41.49069        43.78606        -1.01614
C         42.69671        45.93625        -0.71443
C         41.48825        46.65844        -0.81761
C         42.70982        48.76468        -0.50970
C         41.49293        48.09115        -0.79801
C         42.65046        50.24396        -0.24328
C         41.59737        50.91788        -1.10187
C         42.97615        53.04073        -0.96635
C         41.67296        52.39882        -1.35958
C         43.25018        54.34278        -1.34894
C         41.40964        55.40158        -1.36097
C         42.95276        57.25884        -0.80643
C         41.62618        56.65099        -0.76740
C         44.20938        16.71632        -0.57258
C         45.20563        18.69174        -1.97539
C         44.01312        18.01542        -1.22931
C         45.18407        20.16098        -2.08627
C         43.79081        20.77700        -2.16107
C         45.14180        23.04575        -2.55413
C         43.83345        22.31025        -2.24287
C         45.17379        24.57768        -2.62347
C         44.06952        25.24782        -1.83903
C         45.24585        27.40680        -2.25038
C         44.02442        26.71604        -2.01762
C         45.23462        28.83050        -2.28207
C         43.98014        29.54133        -2.22419
C         45.21190        31.73553        -2.52696
C         43.94500        30.97265        -2.24955
C         45.18602        33.14476        -1.98631
C         43.95544        33.83534        -1.92525
C         45.16732        35.95593        -1.54603
C         43.94051        35.25150        -1.73350
C         45.16648        37.37742        -1.42811
C         43.94756        38.10266        -1.56734
C         45.24432        40.22673        -1.39005
C         43.95616        39.52679        -1.52330
C         45.25253        41.72184        -1.19228
C         43.94445        42.40897        -1.14118
C         45.24777        44.52304        -0.84661
C         43.93110        43.78184        -0.89977
C         45.13304        45.91966        -0.30044
C         43.91793        46.62769        -0.46111
C         45.11406        48.73096         0.09981
C         43.89774        48.05241        -0.27953
C         45.14530        50.17740         0.11250
C         43.99631        50.91491        -0.21572
C         45.29411        53.01563        -0.08705
C         44.06912        52.31830        -0.38708
C         45.38746        54.44449        -0.24933
C         44.31073        55.14283        -0.83807
C         44.14867        56.59203        -0.85742
C         47.64934        18.67739        -2.15104
C         46.50354        17.99929        -1.97929
C         47.65235        20.13417        -2.37027
C         46.36870        20.87453        -2.26370
C         47.63497        23.03285        -2.21281
C         46.42323        22.31344        -2.38014
C         47.65057        24.49054        -2.20964
C         46.49450        25.22718        -2.28951
C         47.70311        27.38568        -2.17733
C         46.48543        26.67489        -2.26700
C         47.68419        28.80770        -2.18948
C         46.47925        29.54128        -2.27333
C         47.62914        31.68694        -1.86667
C         46.47405        30.98227        -2.18647
C         47.63112        33.09813        -1.61182
C         46.40027        33.82004        -1.69349
C         47.61170        35.91184        -1.16743
C         46.39185        35.23168        -1.45902
C         47.60028        37.31807        -0.94516
C         46.39443        38.05661        -1.11576
C         47.57435        40.13506        -0.49684
C         46.42436        39.46217        -0.97674
C         47.54507        41.53808        -0.18700
C         46.40229        42.33765        -0.48918
C         47.41063        44.36764         0.48102
C         46.35238        43.71121        -0.20544
C         47.39660        45.76653         0.65017
C         46.26872        46.55621         0.23559
C         47.47943        48.68515         0.79950
C         46.26598        47.99111         0.41121
C         47.52157        50.10389         0.82091
C         46.35815        50.86813         0.44408
C         47.56008        52.99617         1.06897
C         46.39807        52.27736         0.41674
C         47.67707        54.43109         0.63622
C         46.62889        55.10333         0.11348
C         50.15043        20.21685        -1.64337
C         48.96199        20.91563        -2.14689
C         50.01634        23.05367        -1.43362
C         48.86721        22.36235        -1.91826
C         50.07276        24.47832        -1.49225
C         48.99266        25.18417        -2.27655
C         50.13168        27.33663        -1.71089
C         48.94689        26.66965        -2.01457
C         50.17277        28.77466        -1.66671
C         48.96330        29.51406        -2.07802
C         50.03907        31.57862        -1.02021
C         48.93212        30.99410        -1.86134
C         50.07517        33.07497        -1.11272
C         48.85313        33.77486        -1.27558
C         50.04562        35.87498        -0.74792
C         48.84013        35.19254        -1.07628
C         50.01902        37.27550        -0.46872
C         48.79719        37.99688        -0.56712
C         49.92499        40.02725         0.27615
C         48.76597        39.38811        -0.26147
C         49.83798        41.39701         0.69467
C         48.67142        42.13080         0.45855
C         49.73236        44.19279         1.57416
C         48.53242        43.51995         0.97094
C         49.72418        45.68352         1.70038
C         48.52246        46.47653         1.28977
C         49.83866        48.61140         1.49403
C         48.64261        47.94634         1.12719
C         49.89764        50.00993         1.50657
C         48.74417        50.77479         1.15504
C         50.13689        52.78839         1.03639
C         48.83933        52.19292         1.05904
C         51.14998        20.89184        -1.02528
C         52.29038        23.03314        -0.44971
C         51.15676        22.33369        -0.93500
C         52.35065        24.46539        -0.54037
C         51.22401        25.16944        -1.09647
C         52.49684        27.27467        -1.00429
C         51.31967        26.59999        -1.29275
C         52.65134        28.71647        -1.42897
C         51.34749        29.47082        -1.39035
C         52.55528        31.59509        -1.02185
C         51.36584        30.89121        -1.22709
C         52.53302        33.02387        -0.80491
C         51.28893        33.74978        -0.85844
C         52.49658        35.85769        -0.38491
C         51.28032        35.16559        -0.67257
C         52.46125        37.24601        -0.02934
C         51.20298        37.94583        -0.04284
C         52.28545        39.84731         1.12040
C         51.13460        39.29318         0.37434
C         52.20491        41.22332         1.69146
C         51.07745        42.07200         1.18243
C         52.23048        44.13642         2.27105
C         51.07253        43.51582         1.54159
C         52.14260        45.58181         2.40166
C         51.06223        46.34578         1.71490
C         52.25802        48.53050         2.32722
C         51.08900        47.84023         1.73380
C         52.33648        49.93371         2.30164
C         51.07918        50.75908         2.08973
C         51.25461        52.08262         1.39530
C         54.55007        23.02958         0.49407
C         53.43318        22.35316         0.09369
C         54.64935        24.46184         0.39867
C         53.51321        25.17164        -0.14779
C         54.75455        27.31155        -0.02740
C         53.60634        26.59433        -0.39145
C         54.86631        28.73434        -0.23247
C         53.78260        29.45031        -0.76380
C         54.99696        31.56675        -0.54096
C         53.80711        30.87190        -0.81783
C         55.05588        33.04241        -0.85973
C         53.73480        33.73522        -0.60713
C         54.99306        35.85917        -0.31430
C         53.71877        35.12687        -0.40057
C         54.94862        37.32832         0.05390
C         53.64514        37.94134         0.34014
C         54.79714        39.95715         1.20072
C         53.60663        39.21540         0.93976
C         54.75499        41.30912         1.65778
C         53.47055        41.88091         2.27148
C         54.70406        44.00584         2.65753
C         53.42117        43.40365         2.38301
C         54.83343        45.26839         3.32387
C         53.02350        46.34708         3.13593
C         54.54766        48.36016         3.23876
C         53.29654        47.75817         2.91380
C         54.64177        49.74975         3.08226
C         53.54156        50.52780         2.70052
C         56.99944        24.50536         1.27338
C         55.79993        25.15545         0.80978
C         57.17884        27.22942         0.63236
C         55.77635        26.66427         0.86857
C         57.22004        28.73886         0.55328
C         56.06948        29.44482         0.12041
C         57.39333        31.52754         0.12048
C         56.15803        30.85883        -0.11074
C         57.54924        32.97937        -0.28517
C         56.25319        33.74865        -0.25721
C         57.44277        35.84466         0.31261
C         56.24622        35.10601        -0.06290
C         57.40009        37.25785         0.55787
C         56.16169        37.97774         0.56576
C         57.29456        40.05155         1.20746
C         56.08236        39.31531         0.99364
C         57.23092        41.44537         1.50228
C         55.94887        42.04796         1.76324
C         57.10980        44.20851         2.17788
C         55.91694        43.41725         2.21103
C         57.01004        45.66857         2.39352
C         55.85127        46.16687         3.13769
C         57.07494        48.28588         3.71188
C         55.75360        47.54941         3.78412
C         58.12742        25.17489         1.64059
C         59.54909        27.26915         1.35042
C         58.19076        26.68230         1.66301
C         59.63792        28.56298         0.97627
C         58.45156        29.38120         0.71911
C         59.73236        31.53152         0.84410
C         58.53353        30.80876         0.54258
C         59.77622        32.92045         0.82684
C         58.68505        33.69549         0.39920
C         59.83381        35.86341         0.84538
C         58.65989        35.12671         0.50473
C         59.81103        37.23196         0.98860
C         58.59868        37.96600         0.87734
C         59.72881        40.17757         1.20426
C         58.55162        39.39172         1.09135
C         59.66621        41.53859         1.42783
C         58.42773        42.20961         1.60743
C         59.55351        44.42959         2.03777
C         58.35934        43.63172         1.88859
C         59.53912        45.74906         2.38757
C         58.29215        46.50582         2.46043
C         58.21236        47.79162         3.19777
O         27.68759        42.33217         1.34347
O         36.69792        25.64745        -1.27161
O         51.80219        40.10455         2.53746
O         25.21729        38.20876         2.51382
O         38.37646        42.25202        -3.05366
O         55.11554        36.88818        -1.35592
O         31.99742        28.91708        -0.84002
O         38.89734        27.50573         0.80654
O         48.79854        46.13704         2.72637
O         42.37221        54.94012        -2.26340
O         28.11334        37.45363        -1.39468
O         41.92927        51.41595        -2.42956
O         28.31013        46.31137        -2.39935
O         29.28526        31.81006         2.64232
O         43.91278        24.80478        -0.45976
O         53.75360        45.67781         4.13563
O         48.75638        43.55444         2.44119
O         44.15725        17.97711        -2.68452
O         35.70790        50.96501        -2.74546
O         31.35665        24.28592         3.81689
O         38.12084        31.15012        -3.03264
O         28.31010        33.17767        -0.52532
O         57.46470        46.48019         1.25529
O         51.51220        43.08786         0.19559
O         44.24871        22.61149        -3.63387
O         49.28903        30.48024        -3.17376
O         45.55400        41.15931        -2.51356
O         48.50246        20.51890        -3.49048
O         40.96060        40.00596        -3.29316
O         51.44924        47.05298         0.50209
O         50.67278        51.09861         3.47162
H         49.84407        51.62262         3.40773
O         32.66380        27.41603         3.04259
H         32.25145        26.82971         3.71485
O         31.74348        39.62991         1.11587
H         31.83945        40.57200         1.37435
O         40.03967        44.26211         0.81275
H         40.83444        44.63843         1.24945
O         53.03512        28.67046        -2.85615
H         52.21838        28.51906        -3.37825
O         57.93528        32.93042        -1.71607
H         57.10182        32.76717        -2.22714
O         42.11214        50.39195         1.12276
H         42.72915        49.93838         1.73561
O         34.55714        48.37674         0.58152
H         33.95733        47.87514         1.17205
O         38.06411        50.09644        -3.23360
H         37.21388        50.35844        -3.65935
O         55.34758        27.02827         2.23221
H         54.47842        26.60218         2.39058
O         37.65348        45.77080         0.81732
H         38.42752        45.21245         1.08531
O         44.91929        24.96384        -4.00084
H         45.48341        24.41479        -4.58452
O         45.24978        31.89023        -4.00616
H         46.11993        32.28219        -4.23551
O         49.64039        31.26699         0.36616
H         50.27190        31.71851         0.96538
O         25.15875        27.17215         5.08049
H         26.03734        26.78222         5.27779
O         34.94873        48.46510        -3.03484
H         35.31373        49.19279        -3.58682
O         53.57085        41.46982         3.66837
H         53.03077        40.64571         3.75697
O         38.48675        25.06869         1.90435
H         38.70714        26.03328         1.93184
O         47.19830        53.06143         2.51352
H         46.34738        53.54692         2.57235
O         28.66329        39.80752        -2.20545
H         28.10794        39.02652        -2.44379
O         55.26161        33.11494        -2.32503
H         55.15830        34.05561        -2.58857
O         45.66022        44.70416        -2.25086
H         45.70957        43.81394        -2.66346
O         57.56912        26.73680        -0.67416
H         58.44109        27.12719        -0.89486
O         27.58582        35.70973         2.83165
H         26.85431        35.56507         3.46970
O         57.88093        27.12542         3.00779
H         56.90715        27.02274         3.13484
O         41.13655        29.31674        -3.69018
H         41.81406        29.80347        -4.20630
O         49.39418        25.05224        -3.69337
H         50.29516        25.43052        -3.78015
O         55.52130        47.37744         5.20581
H         54.71200        46.82190         5.30375
O         43.21281        20.32500        -3.41701
H         43.63761        20.85659        -4.12899
O         30.19944        44.40978        -2.87381
H         29.44143        44.99053        -3.13272
H         22.67786        27.06529         3.54254
H         22.54204        29.39241         2.81185
H         22.53103        31.37472         2.89794
H         22.47175        33.77422         2.53955
H         22.34966        35.51594         1.62987
H         22.19571        37.87541         1.13225
H         22.16311        39.83696         0.81233
H         22.08956        42.21481         0.25533
H         22.08351        44.14138         0.34281
H         22.04391        46.58126         0.07032
H         26.03486        23.71957         3.10641
H         23.98151        24.93156         3.60594
H         25.34053        49.95446        -0.72182
H         23.24810        48.73088        -0.34427
H         27.69209        22.80602         3.04713
H         27.00102        50.88890        -0.61794
H         29.74508        21.56801         2.82010
H         29.11220        52.08432        -0.53099
H         33.57628        19.43869         2.46147
H         31.50449        20.66115         2.86044
H         32.96433        54.12570        -0.19956
H         30.81707        53.00610        -0.29756
H         35.26109        18.56354         2.44000
H         34.62503        54.87413         0.24788
H         37.37171        17.39110         2.17918
H         36.73971        56.06918         0.35294
H         41.26028        15.41099         1.86643
H         39.14189        16.60283         2.27286
H         40.58926        58.21259         0.35663
H         38.44497        57.01798         0.43372
H         43.46304        15.25994         0.79773
H         42.99290        58.35096        -0.66351
H         45.05484        16.08620        -0.87925
H         45.06073        57.20123        -0.75628
H         48.59877        18.13224        -2.23671
H         46.51914        16.90294        -1.91823
H         48.59580        54.98115         0.88573
H         46.73032        56.17590        -0.10791
H         50.23360        19.13073        -1.78061
H         50.24573        53.82818         0.69380
H         52.01514        20.32466        -0.65743
H         52.24455        52.55909         1.35611
H         55.38993        22.45830         0.91136
H         53.41690        21.26086         0.20401
H         55.58656        50.26117         3.31225
H         53.64101        51.62236         2.69721
H         57.01859        23.40559         1.30587
H         57.12534        49.23368         4.26951
H         59.00285        24.60679         1.99169
H         60.45703        26.67422         1.53285
H         60.62857        29.01585         0.82260
H         60.61597        30.98472         1.19951
H         60.68238        33.41117         1.20993
H         60.78985        35.33687         0.96582
H         60.74609        37.75350         1.23317
H         60.71492        39.70870         1.08629
H         60.60829        42.09959         1.48268
H         60.52958        43.93100         1.96390
H         60.47694        46.25257         2.66637
H         59.14776        48.36405         3.30592
