         762
 CSIRO Nanostructure Databank - Neutral Graphene Oxide Data Set
C         22.72619        24.56891         2.73161
C         21.49768        25.30308         2.90657
C         22.76018        27.40294         2.96404
C         21.51646        26.66187         2.95728
C         22.79140        28.76397         2.76386
C         21.58944        29.56304         2.57493
C         22.87256        31.44487         1.62621
C         21.61222        30.82775         2.09117
C         22.93394        32.89329         1.30945
C         21.81712        33.48290         0.62782
C         22.92315        35.67844         0.46084
C         21.86716        34.73571         0.09128
C         23.11095        36.89715        -0.39143
C         22.65126        36.94461        -1.72241
C         23.51302        39.21318        -2.01627
C         22.83014        38.08780        -2.50569
C         23.58786        40.50271        -2.73755
C         23.13000        40.67674        -4.12891
C         23.72912        43.04385        -4.03842
C         23.15263        41.91077        -4.71259
C         23.36353        44.37177        -4.28038
C         22.80879        45.03958        -5.39436
C         23.87039        47.33091        -5.02564
C         22.95528        46.42659        -5.59241
C         25.31317        23.03790         3.15790
C         25.15242        24.35917         2.42122
C         23.93797        25.17379         2.81603
C         25.29539        27.35026         2.80281
C         24.03416        26.62989         3.26628
C         25.33866        28.71219         2.69742
C         24.08617        29.53484         2.90210
C         25.38976        31.55449         2.09618
C         24.14405        30.75936         2.01242
C         25.35375        32.91476         1.86084
C         24.11970        33.60300         1.50865
C         25.43237        35.75944         1.25097
C         24.11756        35.06753         1.30052
C         25.51008        37.18946         1.15226
C         23.79484        38.02873         0.08702
C         25.02789        40.18076        -0.28933
C         24.06500        39.17460        -0.70355
C         25.50723        41.18888        -1.11750
C         24.57541        41.55279        -2.20560
C         25.98328        43.63530        -2.63942
C         24.85724        42.72728        -3.08337
C         26.00949        45.07384        -3.02217
C         24.91092        45.76188        -3.43301
C         26.08369        47.83822        -3.91995
C         24.94308        47.02955        -4.13712
C         26.21322        49.19352        -4.39531
C         27.56541        22.87705         2.22020
C         26.48568        22.36123         3.03705
C         27.64620        24.35160         2.03131
C         26.47129        25.08867         2.61240
C         27.85489        27.24406         2.59320
C         26.54518        26.56399         2.75935
C         27.84629        28.70730         2.83976
C         26.58946        29.45233         2.58859
C         27.88720        31.55105         2.24632
C         26.62159        30.83330         2.38624
C         27.88975        32.92779         1.96919
C         26.60729        33.71880         2.11878
C         27.87673        35.62481         0.97595
C         26.60488        35.02759         1.36724
C         27.91729        37.11336         0.65300
C         26.69026        37.87968         0.88712
C         27.90025        39.95734         0.25700
C         26.75082        39.29631         0.71772
C         27.87875        41.31759        -0.25387
C         26.77998        41.89327        -0.92286
C         28.12502        43.93490        -1.42806
C         26.95250        43.18996        -1.58119
C         28.34059        45.23766        -2.10566
C         27.27211        45.82821        -2.96258
C         28.14440        48.12889        -2.59567
C         27.18840        47.30629        -3.13759
C         27.97763        49.63042        -2.67370
C         27.13374        50.02930        -3.86071
C         30.24962        20.24567         1.50881
C         29.00787        20.77473         1.94219
C         30.31569        23.22616         1.08842
C         28.52709        22.05456         1.60727
C         30.26992        24.43118         1.74161
C         28.96807        25.14052         1.89253
C         30.34959        27.17567         2.79501
C         29.01396        26.54923         2.37438
C         30.39423        28.65529         2.48787
C         29.16150        29.43619         2.69629
C         30.35851        31.48716         2.02513
C         29.13108        30.84719         2.29423
C         30.39331        32.91795         1.82634
C         29.12613        33.63071         1.77181
C         30.34394        35.77614         1.45833
C         29.12763        34.97423         1.38066
C         30.41661        37.15651         0.94880
C         29.18429        37.86319         0.67951
C         30.42359        39.88199         0.09311
C         29.14014        39.21834         0.38146
C         30.44079        41.33692        -0.20661
C         29.15397        42.11613        -0.00676
C         30.48623        44.11773        -0.71692
C         29.26419        43.43418        -0.72173
C         30.52361        45.53927        -1.03662
C         29.38247        46.13350        -1.57866
C         30.39321        48.44115        -1.41896
C         29.11055        47.61743        -1.54454
C         30.46528        49.77866        -2.05813
C         29.31211        50.36943        -2.61962
C         30.54073        52.45252        -2.88628
C         29.36906        51.70991        -3.02020
C         32.47595        18.82685         0.27248
C         32.59162        20.17216         0.67351
C         31.36663        20.90484         0.98249
C         32.80565        22.96461         1.31506
C         31.49451        22.37093         0.91755
C         32.76796        24.29056         2.00036
C         31.52476        25.07498         2.09880
C         32.86934        27.12777         2.30710
C         31.60340        26.43768         2.35613
C         32.88282        28.61018         2.01479
C         31.57041        29.31821         2.25791
C         32.82960        31.41491         1.97454
C         31.57704        30.74663         2.06602
C         32.86545        32.81817         1.52702
C         31.60471        33.56996         1.60351
C         32.94009        35.75282         1.37493
C         31.68042        35.02820         1.63454
C         32.90755        37.13768         1.17180
C         31.64975        37.80098         0.92878
C         32.94670        39.96414         0.52495
C         31.65046        39.25123         0.65899
C         32.97501        41.30791        -0.13473
C         31.72053        42.08578        -0.13922
C         32.99815        44.17971        -0.41539
C         31.73831        43.44838        -0.38293
C         32.96535        45.60779        -0.59716
C         31.73102        46.28100        -0.83502
C         32.94092        48.47896        -1.26800
C         31.68263        47.75329        -1.01382
C         32.92541        49.79954        -1.65348
C         31.69113        50.49783        -2.00691
C         32.93334        52.69999        -2.20622
C         31.71114        51.86815        -2.39384
C         33.03495        54.07961        -2.69038
C         34.86757        18.72231         0.08232
C         33.61963        18.09048         0.01963
C         35.05151        20.08940         0.38513
C         33.88242        20.78256         0.76443
C         35.26651        22.85111         1.21485
C         34.01015        22.07313         1.55171
C         35.22424        24.32534         1.32355
C         34.10168        25.00222         2.04247
C         35.36028        27.17097         2.08421
C         34.09064        26.47138         2.13478
C         35.40783        28.56678         2.60413
C         34.07718        29.34305         2.62759
C         35.07843        31.69121         2.79802
C         34.00457        30.81235         2.44706
C         35.29656        32.95146         2.29139
C         34.19486        33.58976         1.55929
C         35.38862        35.76747         1.62540
C         34.18949        35.07202         1.50848
C         35.39883        37.20157         1.53999
C         34.15970        37.88080         1.17101
C         35.36090        40.05442         1.05747
C         34.19393        39.20883         0.76667
C         35.59157        41.30055         0.19578
C         34.29209        42.04088        -0.19357
C         35.46432        44.24322        -0.15541
C         34.23854        43.52075        -0.22151
C         35.42674        45.64315        -0.45080
C         34.20409        46.31967        -0.62442
C         35.49397        48.49712        -1.05805
C         34.19402        47.78978        -0.85076
C         35.50975        49.77906        -1.81044
C         34.20737        50.47495        -2.02072
C         35.51501        52.65093        -2.40273
C         34.26066        51.96596        -2.04689
C         35.49962        54.02971        -2.55110
C         34.23584        54.71604        -2.72209
C         36.98892        17.49558        -3.65077
C         36.26675        17.33496        -2.46679
C         37.47288        19.23101        -1.45416
C         36.53604        18.18167        -1.39044
C         37.56501        20.32267        -0.47592
C         36.46957        20.69513         0.57781
C         37.64949        22.98026         0.77586
C         36.41399        22.22550         0.78405
C         37.74087        24.34432         1.06981
C         36.50778        25.13759         1.18523
C         37.82861        27.19381         1.74387
C         36.53970        26.53018         1.70681
C         37.89717        28.57930         1.99793
C         36.71530        29.27207         2.46259
C         37.91245        31.47317         2.17123
C         36.89688        30.58001         2.84644
C         37.84479        32.92761         2.55752
C         36.55119        33.73540         2.67054
C         37.88239        35.83680         2.11211
C         36.67799        34.98553         1.75052
C         37.84925        37.24812         1.98230
C         36.58785        37.92551         1.75911
C         37.80453        40.22317         1.97951
C         36.54343        39.40233         1.73548
C         37.79858        41.58286         1.27550
C         36.68487        42.19784         0.74673
C         37.86150        44.35141         0.46127
C         36.69533        43.59902         0.31403
C         37.98187        45.63552        -0.24909
C         36.71363        46.32994        -0.70073
C         37.95437        48.49653        -1.05029
C         36.77778        47.78575        -0.94796
C         37.96482        49.89683        -1.51519
C         36.78426        50.52082        -1.87034
C         38.10039        52.57911        -2.71293
C         36.76639        51.85425        -2.50026
C         37.97597        54.07136        -2.85851
C         36.75607        54.77136        -2.68904
C         37.99161        56.90749        -2.71388
C         36.79874        56.18665        -2.63825
C         38.41949        18.97420        -6.08391
C         39.01454        18.27159        -4.88562
C         38.10974        18.33969        -3.66788
C         39.76420        19.61208        -2.29109
C         38.39477        19.13699        -2.54355
C         39.94037        20.64105        -1.19262
C         38.71798        21.07491        -0.47048
C         40.20623        22.84270         0.66919
C         38.87371        22.19876         0.48379
C         40.23863        24.18718         1.35942
C         38.99576        25.01852         1.34130
C         40.30156        27.06555         1.97920
C         39.02920        26.38834         1.61043
C         40.35000        28.55358         2.00150
C         39.17056        29.30588         2.06897
C         40.42480        31.39815         2.60952
C         39.23536        30.74248         2.28624
C         40.40163        32.90967         2.90366
C         39.08526        33.68788         2.74784
C         40.29422        35.89596         2.45820
C         39.08565        35.16234         2.44811
C         40.31015        37.33051         2.29347
C         39.07501        38.01744         2.08760
C         40.30168        40.15372         1.96085
C         39.09811        39.43564         1.90673
C         40.30132        41.61278         1.60780
C         39.00012        42.37389         1.59882
C         40.34128        44.59377         1.21628
C         39.01676        43.84256         1.22406
C         40.38663        45.97900         0.63404
C         39.16037        46.52791        -0.03090
C         40.40590        48.51683        -0.78812
C         39.22200        47.83619        -0.75541
C         40.35171        50.03125        -0.76168
C         39.21317        50.63178        -1.57425
C         40.51829        52.69093        -1.81781
C         39.30859        51.91823        -2.09662
C         40.79893        53.89833        -2.43142
C         39.08681        54.85819        -3.19559
C         40.53431        56.89449        -3.02430
C         39.19972        56.24232        -3.00006
C         40.63160        58.20046        -3.53246
C         40.61563        19.27284        -7.11536
C         39.21766        19.29833        -7.16894
C         41.30855        19.11068        -5.83245
C         40.46717        18.74568        -4.63041
C         42.08683        20.22140        -3.21174
C         40.84337        19.35480        -3.30713
C         42.18592        21.24062        -2.15469
C         41.17859        21.47731        -1.19056
C         42.74231        22.87457         0.20994
C         41.34065        22.46076        -0.19561
C         42.83219        24.15127         1.08160
C         41.57650        24.81834         1.62003
C         42.89650        27.03565         1.95839
C         41.59595        26.28546         2.01021
C         42.85012        28.52084         1.99513
C         41.60411        29.21326         2.14291
C         42.90725        31.09317         2.85209
C         41.62090        30.58495         2.55256
C         42.93371        33.28646         2.99758
C         41.60214        33.80694         2.77574
C         42.82349        35.90589         2.56473
C         41.52796        35.16920         2.55898
C         42.82438        37.39151         2.58537
C         41.52770        38.08566         2.38000
C         42.82478        40.22576         2.31850
C         41.53252        39.47444         2.20334
C         42.85664        41.69255         1.96635
C         41.59183        42.36062         1.50379
C         42.98150        44.57774         1.23256
C         41.62865        43.87411         1.46233
C         42.89368        45.88415         0.44965
C         41.69671        46.55980         0.26679
C         42.96533        48.53208        -0.69747
C         41.68837        47.69797        -0.73632
C         42.93408        50.02322        -0.87110
C         41.66198        50.73040        -0.94496
C         42.81363        52.90903        -0.86275
C         41.65405        52.12909        -1.10144
C         42.76798        54.37200        -0.94783
C         41.63990        54.93290        -1.84343
C         42.90688        57.01996        -2.36972
C         41.69972        56.28884        -2.46379
C         42.96283        58.31953        -2.90215
C         41.83874        58.89633        -3.49174
C         43.57688        19.79168        -6.68232
C         42.61712        19.80816        -5.63785
C         44.24441        20.97364        -4.23601
C         42.96201        20.36681        -4.40729
C         44.50897        21.75342        -3.07554
C         43.38259        22.10080        -2.18171
C         45.06286        23.42602        -0.77489
C         43.66132        22.97794        -0.99972
C         45.24902        24.47588         0.16089
C         44.12049        24.92173         1.02555
C         45.23429        27.26020         0.92599
C         44.14842        26.35766         1.48867
C         45.38339        28.47799         1.89351
C         44.05779        29.22479         1.93454
C         45.25727        31.44785         1.94088
C         44.08324        30.59380         2.29459
C         45.26180        32.97526         2.05334
C         44.08625        33.79077         2.47841
C         45.32971        35.92744         2.25931
C         44.02890        35.20522         1.96646
C         45.34964        37.30486         2.37375
C         44.11728        38.09691         2.33573
C         45.38479        40.24011         2.27990
C         44.11282        39.46842         2.28153
C         45.40285        41.66444         1.75383
C         44.10156        42.27163         1.33684
C         45.38750        44.29284         0.31448
C         44.07737        43.64532         0.72090
C         45.44457        45.79034        -0.02099
C         44.13878        46.52362         0.14481
C         45.39978        48.62608        -0.00931
C         44.19918        47.90478        -0.16233
C         45.43266        50.10301        -0.18609
C         44.17333        50.81395        -0.57063
C         45.26664        53.07851        -0.05041
C         44.00053        52.27278        -0.27648
C         45.30549        54.46702        -0.54794
C         44.03593        55.17161        -0.83449
C         45.44914        56.90613        -2.04149
C         44.10282        56.49146        -1.62803
C         44.87152        20.22754        -6.46967
C         46.60418        21.20657        -4.92416
C         45.25123        20.81365        -5.23463
C         46.87834        21.83347        -3.69869
C         45.81408        22.20817        -2.81001
C         47.47686        23.37664        -1.32248
C         46.09127        22.99465        -1.62901
C         47.67325        24.57539        -0.35424
C         46.46581        25.19710         0.20468
C         47.73536        27.26584         0.64745
C         46.52341        26.53293         0.65594
C         47.73153        28.63385         1.01447
C         46.56575        29.34200         1.46161
C         47.68145        31.55871         1.22603
C         46.52122        30.72500         1.62093
C         47.74647        33.03464         1.51452
C         46.53264        33.74681         1.98812
C         47.81901        35.82782         2.19101
C         46.54696        35.12891         2.13850
C         47.87672        37.15077         2.57097
C         46.67053        38.00744         2.34213
C         47.90705        40.40269         2.26923
C         46.69790        39.51285         2.20648
C         47.88023        41.63723         1.56387
C         46.66785        42.25467         1.27740
C         47.89551        44.38807         0.89751
C         46.66309        43.57614         0.61476
C         47.87189        45.87830         0.94703
C         46.61825        46.57342         0.57173
C         47.86450        48.71727         0.53141
C         46.59261        47.94472         0.43862
C         47.82145        50.20220         0.48035
C         46.47551        50.90000         0.59363
C         47.72534        53.05371         0.11136
C         46.54372        52.35431         0.14081
C         47.77250        54.42632        -0.36732
C         46.52897        55.07849        -0.78632
C         46.56748        56.29922        -1.56398
C         48.97333        21.30794        -5.61548
C         47.67629        21.01416        -5.88266
C         49.40092        21.74309        -4.27676
C         48.28357        22.07816        -3.30332
C         49.80653        23.70557        -2.15631
C         48.56730        23.08715        -2.26463
C         49.97269        24.85525        -1.27933
C         48.89201        25.37041        -0.52599
C         50.16745        27.35460         0.06468
C         48.95524        26.65413         0.09606
C         50.31424        28.60035         0.91173
C         48.99769        29.37425         0.85106
C         50.25531        31.54210         1.40293
C         48.98542        30.84947         1.01722
C         50.25863        32.99037         1.68063
C         49.07801        33.66613         1.74655
C         50.38762        35.84931         2.05469
C         49.08422        35.13231         1.89722
C         50.38773        37.24283         2.55321
C         49.15806        37.73337         2.90989
C         50.40719        40.38350         2.37782
C         49.15462        39.94627         2.75420
C         50.48412        41.58926         1.53118
C         49.17986        42.22643         1.11974
C         50.47078        44.47813         0.89507
C         49.20462        43.68136         0.75168
C         50.38072        45.96735         1.03708
C         49.17479        46.61091         0.96425
C         50.35327        48.86038         0.99157
C         49.06576        48.09334         1.22774
C         50.31999        50.25575         0.93240
C         49.02046        50.97160         0.92170
C         50.25998        53.16052         0.46990
C         48.97891        52.45041         0.64570
C         50.21819        54.44455        -0.03693
C         48.99783        55.07509        -0.40850
C         51.80778        22.02652        -4.89095
C         50.72648        22.38926        -4.07177
C         52.19755        23.95547        -2.89051
C         50.91784        23.34132        -3.03762
C         52.34083        25.14129        -2.05789
C         51.18668        25.60169        -1.34723
C         52.38381        27.70183        -0.98040
C         51.26732        26.85492        -0.69045
C         52.13431        29.08291        -0.69563
C         51.36623        29.52807         0.33730
C         52.72907        31.72505         0.76936
C         51.50868        30.88577         0.89413
C         52.79950        32.83771         1.62424
C         51.58299        33.57562         2.08843
C         52.87845        35.93614         2.39342
C         51.64193        35.08423         2.36319
C         52.91207        37.33666         2.21672
C         51.58280        38.08831         2.08445
C         52.92658        40.26261         2.27503
C         51.64209        39.55499         2.55279
C         52.93924        41.73850         2.01264
C         51.70895        42.42175         1.67868
C         52.82271        44.61778         1.77405
C         51.66835        43.78497         1.42509
C         52.82970        46.04642         1.37007
C         51.64070        46.71452         1.12767
C         52.79460        48.92323         1.05767
C         51.60543        48.17079         1.01118
C         52.76351        50.34772         1.08397
C         51.51851        51.03021         0.93590
C         52.71469        53.15045         0.87261
C         51.49726        52.45787         0.78116
C         53.07896        22.54457        -4.67178
C         54.63355        24.04475        -3.41573
C         53.30082        23.51002        -3.67110
C         54.81235        25.14671        -2.38696
C         53.54956        25.86906        -2.01350
C         54.86896        27.98351        -1.53010
C         53.60789        27.22511        -1.53657
C         55.02166        29.32587        -1.00113
C         53.93158        30.18228        -0.75753
C         55.21834        31.81004         0.47145
C         53.94436        31.24077         0.18328
C         55.28520        32.96118         1.30946
C         54.09061        33.28664         1.98039
C         55.36626        35.89481         2.31110
C         54.11942        35.33474         2.62076
C         55.41915        37.29902         2.05609
C         54.17065        37.99715         2.08484
C         55.35869        40.23954         1.54519
C         54.11009        39.46917         1.79972
C         55.39978        41.71949         1.70698
C         54.15505        42.42105         1.94433
C         55.42836        44.64117         1.90276
C         54.13944        43.89315         2.04015
C         55.41062        46.09979         1.61476
C         54.12762        46.72956         1.22638
C         55.31279        48.98961         1.41652
C         54.10479        48.24584         1.01474
C         55.22018        50.39843         1.56256
C         53.97405        51.09359         1.24166
C         53.91687        52.48885         1.13153
C         57.07698        24.03220        -3.58331
C         55.77206        23.53896        -3.97974
C         57.20233        25.22373        -2.94716
C         55.94776        26.09632        -2.84177
C         57.33459        27.87672        -1.74025
C         56.08552        27.30136        -1.91315
C         57.47362        29.27107        -1.29433
C         56.29621        29.94916        -0.73125
C         57.67498        31.90036         0.13707
C         56.38478        31.18183        -0.05943
C         57.80867        33.04871         1.14281
C         56.51466        33.69415         1.58546
C         58.32369        36.05167         1.70162
C         56.47670        34.92959         2.23184
C         58.00119        37.37717         1.36247
C         56.73248        38.04763         1.84858
C         57.77176        40.27318         0.95168
C         56.67147        39.53254         1.62334
C         57.75574        41.65806         0.93159
C         56.58885        42.37572         1.43833
C         57.80339        44.59721         0.98468
C         56.66229        43.85002         1.59069
C         57.86563        46.09720         1.22405
C         56.59126        46.82170         1.61522
C         57.56790        49.05236         2.26120
C         56.51815        48.28866         1.69573
C         57.47753        50.43745         2.44092
C         56.32720        51.11419         2.05686
C         59.69338        24.94389        -2.52068
C         58.41992        25.67606        -2.18366
C         59.89494        27.67095        -1.60638
C         58.59113        27.20911        -2.27732
C         60.01950        28.99892        -1.04567
C         58.84217        29.89113        -1.08748
C         60.24552        31.69669         0.05133
C         58.91829        31.23088        -0.40058
C         60.32011        33.10381         0.31537
C         59.20047        33.78625         1.00760
C         60.25703        35.96301         0.26738
C         59.28044        35.26988         1.03238
C         60.13199        37.38600         0.12074
C         58.95902        38.05619         0.56070
C         59.98280        40.26435        -0.33625
C         58.80035        39.49316         0.24978
C         60.03020        41.72811        -0.10790
C         58.92567        42.40982         0.46169
C         60.17321        44.53502         0.27207
C         59.01196        43.81813         0.63311
C         60.31995        45.94071         0.67215
C         59.24877        46.65008         1.28858
C         60.87126        48.37400         1.98218
C         59.58515        47.82429         1.99064
C         60.89316        25.51312        -2.26398
C         60.98759        26.83875        -1.71323
C         61.19620        29.49565        -0.48229
C         61.33193        30.82968        -0.03523
C         61.41895        33.84948        -0.15428
C         61.37117        35.22914        -0.24680
C         61.24298        38.15199        -0.40187
C         61.22167        39.49990        -0.53644
C         61.16178        42.45853        -0.51235
C         61.23935        43.82856        -0.32343
C         61.60308        46.52902         0.62729
C         61.87435        47.74385         1.24664
O         58.67816        48.45391         2.84597
O         43.00018        32.13225         3.76307
O         46.78150        38.66920         0.99862
O         37.57235        45.57947        -1.64426
O         33.59630        24.30115         3.20741
O         48.11725        49.43503        -0.72455
O         25.60621        40.05627         0.99493
O         44.32206        52.77694         1.05635
O         30.97731        35.61952         2.77833
O         49.08348        38.89398         3.67039
O         58.80589        32.97427         2.18110
O         28.55876        29.16136         4.04742
O         51.09900        30.81867         2.34748
O         43.83910        23.98992         2.12179
O         32.17591        40.03998         1.79235
O         27.85714        36.11522        -0.42616
O         40.87237        26.52985         3.24151
O         49.83494        35.70850         0.70291
O         36.20477        40.81947        -0.98282
O         42.04756        18.81483        -2.72358
O         49.93588        41.40323         0.17945
O         23.65272        45.21843        -3.19174
O         45.24086        50.59193        -1.55099
O         57.52380        45.52573        -0.11003
O         34.63790        28.78684         3.83494
O         43.04694        23.57435        -2.17737
O         58.18937        30.01505        -2.38627
O         34.82583        48.56778         0.25729
O         47.74407        45.04867         2.19698
O         33.56466        52.52081        -0.89002
O         40.22417        54.17954        -3.66918
O         53.31770        44.39847         3.14268
O         55.64682        26.64435        -4.08190
O         43.79707        42.48138        -0.08690
O         30.48279        40.35465        -1.29867
O         28.05292        24.93066         0.75884
O         42.83856        41.29816         3.34858
O         42.99064        36.60019         3.83627
O         35.48108        40.07197         2.52328
O         23.17156        41.58762        -1.81996
O         58.24245        32.28849        -1.16395
O         47.50606        32.53713         0.14092
O         39.72712        21.80445         1.61918
O         47.87466        23.20190         0.07111
O         39.65088        33.29570         4.09282
O         33.70513        32.98311         0.31951
O         35.56907        24.98488         0.06312
O         32.43024        22.95216        -0.08570
O         33.70352        41.42276        -1.38660
O         57.66545        35.42748         2.75939
O         54.25952        47.34677        -0.11827
O         45.42136        41.36550         3.19776
O         54.50683        39.79972         0.42649
O         41.56699        54.95978        -0.37661
O         52.52816        39.88663         3.65295
O         45.66515        28.05560         3.17934
O         49.98238        44.00662        -0.42324
O         39.44242        46.83762         1.38414
O         58.87507        39.81940        -1.18307
O         44.91381        32.31451         0.76243
O         26.64216        25.61839         3.95458
O         51.52596        34.11784         3.44679
O         49.05467        20.82700        -3.18485
O         43.90469        26.49685         2.89938
O         26.13113        42.69685        -3.80225
O         37.45747        51.86351        -3.80393
O         24.34575        37.94532         1.37916
O         43.16963        49.11526        -2.02887
O         28.41665        45.17499        -3.60579
O         43.89830        56.45822        -0.17654
O         41.39976        17.76887        -5.17024
O         54.16765        34.04406         3.15185
O         48.78401        51.89247         2.02295
O         30.83149        48.46265        -0.01580
O         49.01541        30.26461        -0.33378
O         29.17032        22.67565         0.51416
O         40.90801        24.04525         2.65642
O         34.84795        49.77873        -3.13866
O         56.99303        38.99642         2.95387
O         23.04407        35.82264         1.90541
O         56.38568        44.29287         2.96703
O         23.62208        30.58646         0.66443
O         38.73349        43.39456         2.59644
O         40.21199        19.22270        -0.95196
O         40.94452        44.53930         2.55753
O         46.10179        43.54689        -0.73343
O         52.77698        30.02771        -1.50710
O         41.00324        41.78766         0.30225
O         36.00971        31.19518         3.73007
O         35.95860        17.88784        -0.14759
O         45.68449        45.89188        -1.46196
H         46.09165        45.03965        -1.75342
O         48.74981        48.22989         2.64842
H         49.35866        47.65965         3.16312
O         33.12501        28.72236         0.57245
H         32.40381        28.25863         0.09744
O         34.04522        21.68686         2.94493
H         34.90494        21.24516         3.11589
O         55.30593        24.53775        -1.14359
H         54.64539        23.87585        -0.84655
O         58.70817        27.55411        -3.67356
H         58.53737        28.52083        -3.75336
O         39.06093        16.87587        -5.28082
H         39.99640        16.69261        -5.54704
O         40.00839        50.33030         0.65034
H         39.21305        49.80561         0.88882
O         58.10724        25.36287        -0.78698
H         57.23174        24.90609        -0.75652
O         37.78846        40.59676         3.39098
H         36.85477        40.81397         3.62162
O         46.09783        50.84886         1.98479
H         46.78159        51.34206         2.49428
O         36.44795        34.20888         4.02818
H         36.50552        33.43490         4.62871
O         30.35913        27.06427         4.25068
H         29.69780        27.71535         4.59447
O         43.25249        21.77179         0.98937
H         42.85143        21.80927         1.88414
O         28.37602        47.81485        -0.27535
H         29.07324        47.94122         0.41651
O         43.48032        44.94749         2.54359
H         42.69959        45.20447         3.08981
O         26.56820        34.10716         3.53857
H         25.67405        34.46220         3.73176
O         37.54705        31.46508         0.73294
H         37.25856        32.37556         0.47549
O         44.73701        27.76595        -0.33932
H         45.42880        28.32801        -0.74916
O         51.33687        38.22847         0.65778
H         50.90282        37.41637         0.31009
O         29.14524        42.41704         1.42926
H         28.33818        42.93661         1.62848
O         24.16159        26.61067         4.72849
H         25.01740        26.15526         4.92222
O         43.82838        35.20821         0.52863
H         44.43428        34.54273         0.13452
O         36.96122        34.39539         0.43748
H         36.89709        35.09859        -0.24374
O         27.22976        50.03455        -1.47939
H         27.48857        49.41145        -0.75508
O         50.61733        28.17951         2.25049
H         50.84303        28.98663         2.77098
O         41.71598        46.99036        -2.01548
H         42.19165        47.57109        -2.65562
O         36.93466        20.16052         1.84304
H         37.24719        19.24299         1.69244
O         24.13371        30.03147         4.27034
H         24.12771        29.25215         4.86785
O         24.98522        24.06931         1.00853
H         25.78859        23.60542         0.68853
H         22.66513        23.50510         2.45828
H         20.54432        24.75732         2.89940
H         20.56557        27.21200         2.97198
H         20.61845        29.12724         2.85176
H         20.67989        31.40618         2.01876
H         20.96494        32.83212         0.38529
H         21.07853        35.06339        -0.60088
H         22.12791        36.08061        -2.15473
H         22.41778        38.10142        -3.52358
H         22.70055        39.81875        -4.66424
H         22.65620        42.06676        -5.68295
H         22.28986        44.46041        -6.17237
H         23.86108        48.34093        -5.46391
H         22.36004        46.84327        -6.42146
H         24.47216        22.60806         3.72056
H         25.53643        49.55318        -5.18398
H         26.58877        21.35028         3.46105
H         27.18120        51.06449        -4.22560
H         30.39207        19.17744         1.73782
H         28.40925        20.15000         2.62115
H         30.52739        53.51304        -3.16933
H         28.47116        52.21559        -3.39693
H         31.48642        18.36169         0.17404
H         32.13127        54.61903        -3.00569
H         33.56934        17.02629        -0.24205
H         34.25842        55.77016        -3.03066
H         36.78493        16.85527        -4.51852
H         35.51100        16.54571        -2.36687
H         37.98069        57.99483        -2.55563
H         35.87063        56.74507        -2.45856
H         37.32518        19.02507        -6.17535
H         39.74192        58.67617        -3.96783
H         41.18976        19.62664        -7.98322
H         38.73832        19.62357        -8.10463
H         43.88903        58.90482        -2.82705
H         41.89743        59.91565        -3.89679
H         43.31054        19.34445        -7.64996
H         45.55282        57.71717        -2.77644
H         45.60650        20.11006        -7.27675
H         47.54549        56.67812        -1.89115
H         49.71892        21.24769        -6.42142
H         47.41723        20.66834        -6.89271
H         51.14772        55.01136        -0.18532
H         49.05641        56.11331        -0.76173
H         51.66240        21.28507        -5.68854
H         52.73065        54.24402         0.77112
H         53.90919        22.20355        -5.30399
H         54.83148        53.08949         1.22283
H         57.94481        23.38439        -3.77837
H         55.73278        22.68480        -4.67115
H         58.31588        50.97320         2.90379
H         56.27240        52.20086         2.19890
H         59.64433        23.90171        -2.86777
H         61.07037        49.29214         2.54878
H         61.82468        24.95434        -2.43542
H         61.97944        27.17478        -1.37786
H         62.08809        28.85634        -0.43667
H         62.32290        31.17313         0.29337
H         62.27117        33.30998        -0.59170
H         62.19226        35.74893        -0.75529
H         62.18780        37.62937        -0.60042
H         62.14802        40.02545        -0.80486
H         61.99994        41.94701        -1.00296
H         62.13878        44.35165        -0.67071
H         62.42889        46.00842         0.12778
H         62.88415        48.17286         1.20201
