         640
 CSIRO Nanostructure Databank - Neutral Graphene Oxide Data Set
C         23.58465        27.70951        -2.60048
C         23.41488        28.97493        -2.16187
C         23.13886        31.75570        -1.14094
C         23.11963        33.14206        -1.01845
C         23.18749        36.08987        -0.91071
C         23.14398        37.48838        -0.63107
C         22.87688        40.29430        -0.02231
C         22.97170        41.60299        -0.38286
C         23.08771        44.43881        -1.10623
C         23.12808        45.78308        -1.37861
C         25.95488        24.80531        -2.23165
C         24.82766        25.55530        -2.56252
C         25.76236        27.50906        -1.42579
C         24.70877        26.89680        -2.16830
C         25.64108        28.87294        -1.03214
C         24.27684        29.51934        -1.04715
C         25.51692        31.71436        -0.62851
C         24.32276        31.02896        -0.96788
C         25.50063        33.12927        -0.54607
C         24.30580        33.85173        -0.74697
C         25.42697        35.95274         0.01245
C         24.28851        35.31118        -0.56284
C         25.29448        37.32726         0.61962
C         24.11596        38.10787         0.10404
C         25.35556        40.25598         0.42627
C         24.03050        39.54171         0.57660
C         25.30668        41.75313         0.54621
C         24.16209        42.37549        -0.21326
C         25.45103        44.47909        -0.42520
C         24.22925        43.74261        -0.58616
C         25.50344        45.86390        -0.74639
C         24.32641        46.53234        -1.19685
C         25.54637        48.63388        -1.32098
C         24.37511        47.92304        -1.47236
C         28.32867        23.24677        -1.45493
C         28.24120        24.63942        -1.21522
C         27.04617        25.38676        -1.55220
C         28.06031        27.38183        -0.51861
C         26.96798        26.76369        -1.17798
C         27.90028        28.76188        -0.04866
C         26.73481        29.55907        -0.47755
C         27.92715        31.66579         0.06505
C         26.73234        30.96998        -0.32077
C         27.94053        33.09732         0.13550
C         26.79560        33.88921        -0.44039
C         27.79408        35.96751         0.58353
C         26.65070        35.27709         0.15001
C         27.79429        37.40288         0.67583
C         26.58917        38.11307         0.56210
C         27.81735        40.26661         0.65492
C         26.56802        39.55395         0.55131
C         27.83027        41.70576         0.51784
C         26.62527        42.41943         0.28338
C         27.89385        44.51073        -0.00496
C         26.65585        43.79609        -0.03141
C         27.92965        45.91662        -0.26229
C         26.72800        46.60022        -0.63040
C         27.99073        48.72443        -0.78838
C         26.75318        47.99614        -0.90978
C         28.05970        50.12614        -1.03620
C         30.61833        23.17551        -0.61724
C         29.47128        22.53530        -1.14569
C         30.56787        24.57575        -0.37800
C         29.36127        25.30085        -0.63617
C         30.45586        27.38878         0.15842
C         29.28060        26.69531        -0.30106
C         30.43595        28.78669         0.37107
C         29.15215        29.50209         0.40940
C         30.34706        31.65867         0.55474
C         29.13347        30.96770         0.34839
C         30.31975        33.07811         0.69758
C         29.07952        33.77301         0.54788
C         30.31643        35.95079         0.82912
C         29.01726        35.20912         1.01316
C         30.28919        37.40682         0.78626
C         29.05045        38.11240         0.76240
C         30.28921        40.23809         0.83315
C         29.05044        39.54223         0.76145
C         30.27705        41.71897         1.09641
C         29.05554        42.41995         0.56408
C         30.33646        44.54037         0.40003
C         29.09384        43.81479         0.33288
C         30.36460        45.94082         0.16802
C         29.15561        46.63496        -0.16296
C         30.42224        48.76430        -0.31516
C         29.18726        48.04355        -0.41854
C         30.46442        50.16638        -0.59464
C         29.24309        50.81791        -0.94620
C         33.10243        20.33921        -0.37688
C         31.92594        21.04499        -0.59165
C         32.97675        23.11933         0.15199
C         31.83698        22.43811        -0.34187
C         32.93790        24.54413         0.35286
C         31.73588        25.26642         0.09443
C         32.88264        27.37455         0.67538
C         31.69858        26.67666         0.30815
C         32.86862        28.81417         0.77478
C         31.63090        29.51764         0.58492
C         32.80198        31.67629         0.81047
C         31.59366        30.94701         0.68065
C         32.77219        33.10713         0.87564
C         31.53139        33.80124         0.89285
C         32.77686        36.01197         1.21195
C         31.49843        35.24827         0.93506
C         32.77150        37.34248         0.46179
C         31.50097        38.12042         0.71659
C         32.77939        40.25371         0.76515
C         31.51207        39.53775         0.76501
C         32.77894        41.68765         0.76950
C         31.56292        42.41758         0.75389
C         32.80069        44.54509         0.61263
C         31.56409        43.82330         0.60324
C         32.81383        45.96881         0.50915
C         31.59818        46.66685         0.24820
C         32.85411        48.80406         0.15311
C         31.62595        48.07871         0.03121
C         32.88679        50.21703        -0.07425
C         31.69488        50.88013        -0.50729
C         32.93044        52.97985        -0.76467
C         31.80286        52.25535        -0.94288
C         35.51908        18.81917         0.36574
C         35.48755        20.22956         0.35978
C         34.26750        20.97844         0.07867
C         35.36850        23.08180         0.73201
C         34.21484        22.39439         0.33755
C         35.23266        24.44286         1.37266
C         34.09434        25.24873         0.79012
C         35.33223        27.36049         1.20935
C         34.09230        26.64632         0.90504
C         35.29476        28.84446         1.51575
C         34.04624        29.53953         1.03115
C         35.28637        31.65395         0.89580
C         34.05136        30.95587         0.92809
C         35.28873        33.11636         0.51675
C         34.00928        33.84873         0.85920
C         35.27357        35.96369         0.79776
C         34.03340        35.22499         0.92754
C         35.24868        37.40795         0.73878
C         34.04025        38.11728         0.70721
C         35.25456        40.26161         0.76593
C         34.00974        39.54559         0.73293
C         35.25042        41.68413         0.81324
C         34.01611        42.40041         0.77064
C         35.24651        44.54744         0.84481
C         34.02004        43.82629         0.74413
C         35.23698        45.96088         0.85944
C         34.04171        46.68844         0.65911
C         35.25808        48.87571         0.65012
C         34.05893        48.13109         0.51912
C         35.30492        50.27858         0.39377
C         34.10850        50.94427         0.06997
C         35.41301        53.10026        -0.23957
C         34.07339        52.45674         0.06581
C         35.47389        54.42649        -0.66288
C         37.87890        18.81335         0.96560
C         36.68944        18.13175         0.67546
C         37.88801        20.23056         0.93379
C         36.68975        20.92458         0.64138
C         37.92693        23.12246         0.98795
C         36.66374        22.39849         0.64249
C         37.87564        24.53694         1.47442
C         36.54735        25.22458         1.51540
C         37.79809        27.45396         1.68325
C         36.51728        26.69966         1.36489
C         37.78842        28.88476         1.17587
C         36.57442        29.56087         1.13564
C         37.76356        31.70215         0.74651
C         36.52680        30.97682         0.92505
C         37.77883        33.10893         0.72892
C         36.50339        33.82108         1.10402
C         37.72775        35.97790         0.55713
C         36.49578        35.29061         0.77606
C         37.70266        37.40390         0.50068
C         36.50558        38.10366         0.68070
C         37.70848        40.25456         0.78897
C         36.49332        39.55277         0.73881
C         37.70523        41.66604         0.82951
C         36.48225        42.39826         0.86190
C         37.71568        44.53170         0.94641
C         36.48936        43.82898         0.92450
C         37.77114        45.97751         1.02834
C         36.47901        46.68139         1.19544
C         37.76999        48.92963         1.12578
C         36.46356        48.19794         1.15542
C         37.78326        50.32279         0.64281
C         36.58491        51.00558         0.40786
C         37.87571        53.10451        -0.02427
C         36.62321        52.40688         0.04159
C         37.91368        54.42243        -0.60854
C         36.70229        55.04759        -0.91521
C         40.34927        15.95648         1.01399
C         39.18126        16.61414         1.21737
C         40.36579        18.83241         1.03424
C         39.12371        18.09778         1.47163
C         40.39192        20.21054         1.12985
C         39.13433        20.96184         1.19815
C         40.38127        23.10796         1.49783
C         39.14127        22.33676         1.27584
C         40.38796        24.58283         1.31557
C         39.13609        25.32383         1.34258
C         40.32075        27.48144         1.27687
C         39.07187        26.69768         1.33595
C         40.26683        28.89315         0.80742
C         39.00955        29.57480         0.86277
C         40.20473        31.68271         0.34850
C         38.99383        30.97654         0.62044
C         40.21948        33.11175         0.31577
C         38.97395        33.83913         0.51817
C         40.20289        35.95641        -0.05100
C         38.94615        35.25496         0.42730
C         40.24389        37.43004         0.25181
C         38.94545        38.18537         0.13066
C         40.25001        40.24810         0.58603
C         39.00040        39.47658         0.93469
C         40.17100        41.66706         0.50355
C         38.93799        42.37416         0.70289
C         40.09683        44.49702         0.40189
C         38.92293        43.79199         0.75642
C         40.23394        45.92714         0.76383
C         38.96647        46.67199         0.93040
C         40.33228        48.85363         0.76071
C         39.06633        48.13883         1.09434
C         40.30990        50.28303         0.65225
C         39.05455        50.98262         0.55728
C         40.31375        53.02272         0.63362
C         39.06588        52.38703         0.37398
C         40.35768        54.88523        -0.37938
C         39.16354        55.06613        -1.06941
C         40.47672        56.30196        -2.71438
C         39.25615        55.81454        -2.28019
C         42.82299        15.99363         0.79632
C         41.60162        16.64370         0.82791
C         42.85362        18.82822         0.61723
C         41.54619        18.09807         0.46791
C         42.83012        20.23966         0.69824
C         41.63931        20.92462         0.96686
C         42.91129        23.12957         0.98675
C         41.68909        22.36004         1.29371
C         42.86684        24.54676         1.01436
C         41.60513        25.23947         1.18931
C         42.80212        27.39483         0.63615
C         41.61899        26.71512         1.19003
C         42.65762        28.77280         0.12008
C         41.41832        29.54806         0.37176
C         42.60025        31.68744        -0.23265
C         41.42525        30.96977         0.13159
C         42.64891        33.10980        -0.13474
C         41.44147        33.79623         0.18188
C         42.72432        35.99113         0.13363
C         41.45241        35.26794         0.50721
C         42.71415        37.38939         0.13584
C         41.44063        38.10150         0.27665
C         42.68420        40.25849         0.08109
C         41.45910        39.56587         0.32366
C         42.67167        41.75524         0.28348
C         41.30330        42.37377         0.04429
C         42.98381        44.81584        -0.12105
C         41.10689        43.74068        -0.19850
C         42.84295        46.03273         0.46740
C         41.53749        46.68176         0.75555
C         42.80561        48.86001         0.65932
C         41.54022        48.16649         0.71891
C         42.80185        50.28134         0.56636
C         41.55670        50.98318         0.53764
C         42.82257        53.27194         0.57946
C         41.55415        52.41258         0.53784
C         42.83150        54.47032        -0.40361
C         41.65003        55.09186        -0.92844
C         42.97490        56.38777        -2.51869
C         41.70025        55.94168        -2.07473
C         44.03736        16.70136         0.63490
C         45.34600        18.85526         0.64019
C         44.07762        18.10606         0.58137
C         45.34233        20.23165         0.62138
C         44.08106        20.99204         0.32298
C         45.31663        23.16186         0.56933
C         44.11019        22.44358         0.73144
C         45.26167        24.57542         0.49312
C         44.05849        25.27567         0.70898
C         45.22933        27.49500         0.28402
C         43.98400        26.71927         0.50009
C         45.20529        28.87855        -0.16601
C         43.88165        29.48831        -0.37043
C         45.10896        31.69528        -0.88712
C         43.82711        30.95960        -0.63307
C         45.09094        33.22055        -0.96621
C         43.87920        33.84915        -0.30075
C         45.15881        35.98559        -0.28617
C         43.91970        35.25889        -0.14018
C         45.16305        37.40775        -0.19047
C         43.93210        38.12243        -0.03546
C         45.16398        40.25650        -0.24594
C         43.91625        39.56002        -0.05736
C         45.16590        41.74208        -0.52699
C         43.92617        42.51006        -0.13323
C         45.31056        44.45677         0.65343
C         44.05644        43.86733         0.03846
C         45.25750        45.96137         0.49570
C         44.05117        46.68327         1.07286
C         45.27500        48.85664         0.60365
C         44.04355        48.16277         0.73750
C         45.28451        50.28731         0.52121
C         44.04669        51.01326         0.51446
C         45.30787        53.08182         0.15458
C         44.06796        52.42072         0.38406
C         45.31913        54.42990        -0.31714
C         44.06665        54.98755        -0.82795
C         44.11105        55.97920        -1.85547
C         47.80564        18.83592         0.56992
C         46.61568        18.16487         0.70877
C         47.86315        20.25890         0.48313
C         46.61224        21.00451         0.87821
C         47.77596        23.11548         0.22028
C         46.58680        22.44908         0.43484
C         47.77558        24.62960         0.38302
C         46.46780        25.23698        -0.12824
C         47.65028        27.45550        -0.51361
C         46.53231        26.73389         0.06916
C         47.65049        28.84620        -0.54582
C         46.39584        29.57097        -0.42288
C         47.61068        31.69033        -0.73027
C         46.40347        30.98867        -0.68416
C         47.61463        33.14805        -0.67983
C         46.40743        33.86528        -0.59539
C         47.64336        35.98476        -0.47685
C         46.40211        35.27851        -0.45668
C         47.63367        37.43352        -0.48308
C         46.39619        38.13240        -0.33433
C         47.60417        40.29814        -0.88759
C         46.36368        39.56537        -0.39389
C         47.67779        41.74663        -0.46600
C         46.47836        42.44079        -0.20437
C         47.75465        44.53131         0.05200
C         46.53582        43.80580         0.09512
C         47.77173        45.95086         0.22596
C         46.51799        46.70797         0.27821
C         47.75346        48.82820         0.50551
C         46.51847        48.15498         0.51669
C         47.77008        50.25549         0.51393
C         46.53484        50.97170         0.46883
C         47.79321        53.08928         0.19706
C         46.55196        52.38683         0.28865
C         47.74994        54.47112        -0.10353
C         46.54777        55.10467        -0.41317
C         50.29984        20.28940         0.01851
C         49.04712        20.96491         0.19732
C         50.21204        23.08334        -0.30927
C         49.03633        22.40774         0.05927
C         50.20609        24.55487        -0.51753
C         48.98095        25.34473        -0.23055
C         50.07517        27.43424        -1.10689
C         48.79833        26.64019        -1.03492
C         50.09926        28.82168        -1.03369
C         48.87216        29.56949        -0.80764
C         50.11455        31.70127        -0.83951
C         48.86774        30.97340        -0.77795
C         50.11957        33.11165        -0.71965
C         48.86572        33.84767        -0.61075
C         50.15573        36.01576        -0.33734
C         48.86036        35.25447        -0.52542
C         50.09258        37.37682        -1.02966
C         48.85694        38.14739        -0.62948
C         50.12706        40.24367        -0.73772
C         48.89850        39.55301        -0.64539
C         50.13324        41.69948        -0.82596
C         48.90447        42.43423        -0.47460
C         50.21297        44.53653        -0.06892
C         48.96561        43.82951        -0.20971
C         50.20988        45.92540         0.24534
C         48.98173        46.65569         0.30854
C         50.21884        48.77488         0.54510
C         48.98487        48.08643         0.45086
C         50.24314        50.20801         0.57091
C         49.02039        50.94870         0.49072
C         50.30522        53.01902         0.39805
C         49.04021        52.36981         0.37128
C         51.44757        20.96545        -0.28723
C         52.64133        23.06719        -0.87060
C         51.45087        22.38459        -0.49769
C         52.58197        24.44469        -1.42167
C         51.26313        25.16971        -1.38909
C         52.56601        27.41033        -1.67562
C         51.24892        26.66907        -1.55728
C         52.57265        28.86111        -1.38027
C         51.34773        29.55146        -1.16827
C         52.57909        31.68154        -1.08971
C         51.34470        30.97390        -1.01789
C         52.58756        33.10467        -0.97440
C         51.36591        33.82145        -0.77661
C         52.59780        35.93841        -0.88994
C         51.39758        35.24895        -0.73280
C         52.65395        37.42069        -1.19013
C         51.37856        38.15748        -0.86712
C         52.70733        40.27670        -0.95201
C         51.38418        39.52368        -0.77452
C         52.70217        41.68508        -0.40740
C         51.49971        42.46768        -0.61679
C         52.64851        44.47019         0.31064
C         51.44741        43.84258        -0.12200
C         52.64407        45.87141         0.59728
C         51.43413        46.61009         0.49199
C         52.66962        48.70678         0.86506
C         51.43504        48.02952         0.63420
C         52.71000        50.13829         0.75818
C         51.50037        50.88673         0.60913
C         51.48370        52.31206         0.53029
C         55.06095        23.11597        -1.20230
C         53.90937        22.43819        -0.85977
C         55.06922        24.51895        -1.48136
C         53.83728        25.22939        -1.53546
C         55.05005        27.36544        -1.57370
C         53.82941        26.63962        -1.59190
C         55.05149        28.80742        -1.53110
C         53.80670        29.54663        -1.40481
C         55.02832        31.70113        -1.40082
C         53.81433        30.97809        -1.28981
C         55.06544        33.10829        -1.19686
C         53.82698        33.81115        -1.00326
C         55.07251        35.92676        -0.74223
C         53.83363        35.22750        -0.91399
C         55.08224        37.33601        -0.48965
C         53.88562        38.09783        -0.63320
C         55.09000        40.15246        -0.05274
C         53.90135        39.47958        -0.48228
C         55.08754        41.55672         0.20946
C         53.85932        42.30694         0.09151
C         55.05633        44.36478         0.84960
C         53.85716        43.71261         0.40961
C         55.02819        45.75391         1.17506
C         53.84961        46.53844         1.00262
C         55.01165        48.74359         1.71532
C         53.84382        47.95590         1.14519
C         55.13794        50.06653         1.00059
C         54.01730        50.74830         0.66048
C         57.55313        24.54736        -1.75802
C         56.30313        25.22921        -1.63845
C         57.52152        27.37089        -1.71510
C         56.28795        26.65466        -1.65048
C         57.52068        28.79786        -1.67277
C         56.27364        29.49512        -1.58633
C         57.58780        31.70755        -1.70556
C         56.26956        30.96641        -1.70874
C         57.62353        33.22526        -1.53217
C         56.29326        33.82901        -1.11655
C         57.53563        35.87032        -0.43011
C         56.29418        35.19642        -0.77157
C         57.52546        37.25295        -0.10277
C         56.29925        38.00343        -0.16314
C         57.52014        40.07409         0.44301
C         56.29502        39.39907         0.09934
C         57.52085        41.47243         0.69372
C         56.28337        42.22530         0.61853
C         57.49855        44.22719         1.55087
C         56.26452        43.59982         0.94177
C         57.54082        45.72146         1.42429
C         56.26719        46.42654         1.62295
C         57.61830        48.58081         1.67258
C         56.30261        47.92518         1.82747
C         58.73623        25.23619        -1.84947
C         59.97393        27.37964        -1.83663
C         58.75405        26.66137        -1.80368
C         59.97671        28.75765        -1.72195
C         58.76866        29.48782        -1.62429
C         59.85151        31.52039        -0.73321
C         58.79572        30.91628        -1.38210
C         59.81780        32.89589        -0.36110
C         58.76030        33.71803        -0.66616
C         59.91554        35.78331         0.11329
C         58.74239        35.12702        -0.31952
C         59.91752        37.13951         0.38269
C         58.73651        37.90913         0.26831
C         59.94677        40.02410         0.77408
C         58.73841        39.33230         0.50920
C         59.96121        41.38897         0.95593
C         58.75971        42.14628         0.93910
C         59.96976        44.31510         1.10374
C         58.78284        43.55835         1.14993
C         59.97149        45.69210         1.26586
C         58.74323        46.41233         1.42309
C         58.75235        47.86243         1.50114
O         37.23432        24.78431         2.77595
O         45.56357        46.35660        -0.86213
O         41.04742        46.11217         2.04681
O         28.20569        28.93486         1.37977
O         46.17057        27.22423         1.38966
O         51.64075        24.46565        -2.58733
O         38.52866        48.69693         2.34899
O         40.28896        54.39486         0.93497
O         50.87811        42.26571        -1.94907
O         36.28906        47.48002         2.41643
O         37.53572        23.03032        -0.43309
O         41.17651        27.31548         2.46831
O         51.75285        27.09180        -2.86454
O         56.20957        47.02790         2.99688
O         41.99399        44.41814        -1.02430
O         43.02116        28.76513        -1.33043
O         44.31002        31.17147        -2.01823
O         56.95196        31.37024        -2.97980
O         50.09084        25.38409         0.72148
O         41.16569        22.65028         2.64756
O         50.28202        36.28453         1.09219
H         50.29474        35.42466         1.56228
O         47.46686        40.31960        -2.34990
H         46.61151        40.78289        -2.54055
O         34.76762        24.14990         2.73454
H         35.57253        24.06979         3.29875
O         48.51956        26.21280        -2.40160
H         48.68087        26.96988        -3.00286
O         45.28303        44.12678         2.06244
H         44.70433        44.78733         2.51965
O         57.38042        43.99150         3.02044
H         56.83630        44.72196         3.39000
O         49.93664        37.08324        -2.44520
H         49.90069        37.93270        -2.93284
O         24.99882        42.01374         2.01613
H         25.85701        41.98988         2.49414
O         35.23599        28.91006         2.98198
H         36.08581        28.52652         3.31576
O         44.94114        33.58000        -2.37939
H         44.43069        32.84354        -2.79552
O         54.63321        49.08599         3.08865
H         54.85759        48.29798         3.63623
O         27.20604        34.12953        -1.84370
H         26.44303        34.54011        -2.30399
O         46.39327        24.95499        -1.54295
H         45.50460        25.19860        -1.87437
O         44.04568        46.51890         2.52129
H         43.11766        46.63730         2.82687
O         41.32860        35.36975         1.96210
H         42.12658        34.96400         2.36061
O         39.06647        18.21853         2.93781
H         39.12998        19.17218         3.16045
O         40.18279        35.86028        -1.50956
H         40.10129        34.91135        -1.74712
O         25.04251        37.10277         2.05791
H         24.61965        37.93171         2.40067
O         57.89346        33.78372        -2.85600
H         57.41145        33.21003        -3.49655
O         33.77847        52.85503         1.45504
H         32.94454        52.40868         1.71458
O         38.81633        38.52349        -1.27981
H         39.08265        37.72596        -1.79156
O         45.10719        41.80472        -2.01725
H         45.06656        42.75178        -2.27538
O         37.80992        27.56624         3.15009
H         37.78964        26.64139         3.49589
O         36.38196        33.72184         2.55594
H         37.17008        34.14761         2.95408
O         52.86290        40.39111        -2.41702
H         52.17108        41.03755        -2.70800
O         23.78443        39.51661         2.03589
H         24.00608        40.43241         2.35202
O         52.79165        37.51713        -2.64865
H         52.89344        38.48001        -2.85654
O         41.29840        18.09412        -1.01876
H         41.95256        17.47433        -1.40862
O         47.81408        24.84967         1.80794
H         48.75878        24.98739         2.05267
O         42.91515        53.83646         1.92110
H         42.08108        54.33657         2.07111
O         35.42718        33.16261        -0.93460
H         34.59706        32.82097        -1.32786
O         32.78624        36.32654         2.63317
H         32.97259        35.50159         3.12815
O         30.15764        41.84384         2.57574
H         30.25042        42.79648         2.79250
O         39.09593        39.08432         2.33857
H         39.02327        39.89463         2.88487
O         42.79284        41.89195         1.76662
H         42.15792        41.26180         2.17215
O         46.68232        21.10507         2.36070
H         47.42447        21.70973         2.57796
O         23.62442        29.08655         0.20275
H         23.65892        28.10644         0.22493
O         44.02772        21.07104        -1.15928
H         43.83201        20.16883        -1.49276
O         32.76519        37.00466        -0.96092
H         32.80454        37.84110        -1.47009
O         28.86259        35.10489         2.48103
H         29.68796        34.71230         2.83771
H         22.89381        27.27786        -3.34090
H         22.56507        29.57084        -2.52530
H         22.19858        31.22696        -1.34893
H         22.16613        33.67529        -1.13000
H         22.32173        35.63924        -1.41406
H         22.26625        38.04778        -0.98438
H         21.89676        39.79900        -0.05833
H         22.07698        42.08677        -0.80035
H         22.14255        43.90180        -1.25924
H         22.22886        46.29900        -1.74550
H         25.99376        23.75325        -2.54367
H         24.01567        25.09053        -3.14029
H         25.54064        49.70918        -1.54219
H         23.46152        48.43287        -1.81086
H         27.47270        22.70637        -1.88015
H         27.15076        50.68050        -1.30415
H         29.47825        21.45434        -1.33566
H         29.23562        51.89901        -1.13809
H         33.11055        19.26088        -0.58541
H         31.05384        20.49400        -0.96605
H         32.95395        54.01678        -1.12681
H         30.95933        52.71110        -1.48038
H         34.61042        18.24192         0.14941
H         34.55608        55.00108        -0.84250
H         36.66562        17.03377         0.69418
H         36.71012        56.06205        -1.33777
H         40.35724        14.85514         0.98527
H         38.26408        16.02976         1.37958
H         40.52057        56.93548        -3.61188
H         38.34653        56.02809        -2.85941
H         42.86244        14.90598         0.95778
H         43.04474        57.07169        -3.37643
H         44.96977        16.12209         0.63218
H         45.08926        56.35303        -2.18905
H         48.72945        18.24535         0.49416
H         46.63485        17.06928         0.77758
H         48.68145        55.04952        -0.17104
H         46.57059        56.15701        -0.72993
H         50.34800        19.19886         0.13567
H         50.35546        54.11476         0.33212
H         52.37523        20.39351        -0.41871
H         52.43069        52.86757         0.57449
H         56.01187        22.56962        -1.16137
H         53.99949        21.38971        -0.54589
H         56.12022        50.54508         0.88333
H         54.10470        51.76441         0.24839
H         57.57572        23.45040        -1.79522
H         57.67381        49.67812         1.69786
H         59.68781        24.69404        -1.94614
H         60.92086        26.82890        -1.92837
H         60.93341        29.29798        -1.72800
H         60.72564        30.92547        -0.43491
H         60.66767        33.28036         0.21997
H         60.85748        35.22583         0.20152
H         60.86124        37.60893         0.68826
H         60.89855        39.48001         0.82137
H         60.91865        41.88608         1.16002
H         60.92595        43.81507         0.89405
H         60.91674        46.25113         1.22422
H         59.72036        48.37695         1.40899
