         666
 CSIRO Nanostructure Databank - Neutral Graphene Oxide Data Set
C          5.87965        31.68947         0.46735
C          5.86640        33.03146         0.73513
C          8.36260        27.42240         0.08181
C          8.35898        28.79812         0.18447
C          7.14329        29.57437         0.13949
C          8.31001        31.58340         0.99285
C          7.09555        30.91546         0.46253
C          8.28620        33.03003         1.38732
C          7.06892        33.78727         1.01458
C          8.42536        35.83474         0.75865
C          7.15454        35.13534         0.77249
C          8.48254        37.17326         0.30132
C         10.81837        23.15022        -0.36871
C         10.83545        24.52768        -0.09568
C          9.59999        25.27638        -0.01032
C         10.82659        27.34180         0.51616
C          9.57276        26.64296         0.16467
C         10.90767        28.79508         0.44100
C          9.64702        29.53700         0.25938
C         10.86193        31.65910         1.11042
C          9.62473        30.98455         0.64327
C         10.85446        32.97699         1.44848
C          9.58146        33.78315         1.70236
C         10.86767        35.83616         0.98074
C          9.62161        35.16485         1.08547
C         10.90056        37.18596         0.49916
C          9.70411        37.84633         0.17700
C         10.96204        40.03622        -0.12747
C          9.72264        39.22634        -0.44934
C         10.92325        41.41944        -0.26288
C         13.22954        18.87458        -0.76506
C         13.23244        20.28335        -0.86059
C         12.02574        21.02863        -0.76907
C         13.25722        23.15741        -0.65102
C         12.02412        22.44098        -0.60179
C         13.29533        24.53377        -0.36773
C         12.09296        25.19463        -0.01889
C         13.38979        27.36439         0.25227
C         12.15842        26.58267         0.43628
C         13.38829        28.75174         0.48536
C         12.11629        29.44154         0.63607
C         13.43713        31.61133         1.05840
C         12.11214        30.84983         1.08971
C         13.34617        33.05162         1.14928
C         12.14336        33.71628         1.78253
C         13.30335        35.88918         1.33312
C         12.08615        35.16292         1.31794
C         13.21933        37.39583         1.46369
C         12.22631        37.87556         0.32023
C         13.27703        40.17628         0.62313
C         12.15667        39.39210         0.29634
C         13.27877        41.57588         0.39255
C         12.08212        42.21898        -0.05487
C         13.23355        44.40647        -0.12641
C         12.06593        43.62466        -0.25162
C         13.22241        45.80981        -0.32374
C         15.69878        14.82513         0.26478
C         15.66805        16.02767        -0.39881
C         14.45640        16.75899        -0.50929
C         15.67672        18.84249        -1.00854
C         14.43922        18.14468        -0.80763
C         15.69724        20.25362        -1.01188
C         14.49097        20.96818        -0.93259
C         15.76718        23.17060        -0.85750
C         14.47899        22.45702        -1.16879
C         15.76281        24.58326        -0.66528
C         14.54991        25.27677        -0.39579
C         15.81051        27.40603        -0.24893
C         14.58168        26.66989        -0.12385
C         15.81754        28.83583        -0.03245
C         14.62838        29.49291         0.35919
C         15.80235        31.66531         0.31983
C         14.64907        30.92828         0.54333
C         15.74246        33.14132         0.27359
C         14.45748        33.85151         0.69162
C         15.81402        35.96689         1.29759
C         14.51362        35.25615         1.13009
C         15.70600        37.40574         0.69383
C         14.51101        38.10137         1.27880
C         15.74471        40.31990         1.26021
C         14.42235        39.59330         1.44827
C         15.72384        41.72523         0.82264
C         14.49099        42.35829         0.50730
C         15.69268        44.48854         0.20869
C         14.47846        43.74326         0.19633
C         15.68246        45.90713        -0.11704
C         14.40917        46.59159        -0.32960
C         15.56151        48.79903        -0.65500
C         14.36842        47.99184        -0.44246
C         15.63227        50.24875        -0.44133
C         18.14540        10.47669         0.49838
C         18.11702        11.91478         0.47768
C         16.93515        12.62869         0.44508
C         18.19977        14.73471        -0.02598
C         16.97260        14.12456         0.62002
C         18.19043        15.95792        -0.62069
C         16.88724        16.54317        -1.13612
C         18.23495        18.81702        -1.31516
C         16.91775        18.07539        -1.27208
C         18.26120        20.28861        -1.12443
C         16.98882        20.98146        -0.68070
C         18.19335        23.18838        -1.00363
C         16.96908        22.47273        -0.95411
C         18.22298        24.58483        -0.90615
C         16.99991        25.30521        -0.69538
C         18.21159        27.48765        -0.99519
C         16.99518        26.71535        -0.56637
C         18.25035        28.91404        -0.50630
C         17.05849        29.57304        -0.18440
C         18.20616        31.77152        -0.24302
C         17.06349        31.02430        -0.01207
C         18.21487        33.28386        -0.29604
C         16.99732        33.91336         0.35050
C         18.25627        35.96988         0.69304
C         17.01539        35.22994         0.72461
C         18.20524        37.40778         0.79573
C         17.02840        38.10997         0.90765
C         18.25389        40.34723         0.78814
C         17.04637        39.57009         1.10718
C         18.21833        41.72230         0.77091
C         16.94149        42.42550         0.70642
C         18.18012        44.55886         0.50078
C         16.91097        43.81824         0.44764
C         18.15711        46.02839         0.22888
C         16.86543        46.62504        -0.15247
C         18.12562        48.82802        -0.11956
C         16.91255        48.02582        -0.56886
C         18.09833        50.20012        -0.75745
C         16.83140        50.96451        -0.55945
C         18.16144        53.08063        -0.50655
C         16.91270        52.36693        -0.51206
C         18.18446        54.44700        -0.24987
C         20.59653         6.21200         0.38688
C         20.57069         7.60078         0.55621
C         19.34986         8.33486         0.49628
C         20.64137        10.46091         0.22855
C         19.33229         9.73854         0.46490
C         20.62025        11.85942         0.84578
C         19.38766        12.63866         0.46701
C         20.70012        14.66038        -0.07182
C         19.43770        13.98063         0.15129
C         20.72089        15.96255        -0.55244
C         19.47250        16.57141        -1.14555
C         20.70844        18.76094        -1.14618
C         19.51135        18.08584        -1.11093
C         20.72280        20.22151        -1.56868
C         19.43407        20.95523        -1.22427
C         20.63782        23.07957        -0.59211
C         19.47114        22.46340        -1.35248
C         20.69081        24.57584        -0.86623
C         19.50116        25.29912        -0.92182
C         20.70195        27.46913        -0.81284
C         19.51694        26.74497        -0.85236
C         20.69249        28.91329        -0.77131
C         19.49600        29.62204        -0.61964
C         20.72658        31.88359        -0.57422
C         19.42085        31.12307        -0.86846
C         20.72169        33.22779         0.07668
C         19.51304        33.89514         0.21837
C         20.74232        35.93989         0.84661
C         19.49020        35.27832         0.59887
C         20.70786        37.39463         1.14982
C         19.49774        38.12929         0.66842
C         20.79261        40.31943         0.98504
C         19.53102        39.61776         0.65821
C         20.76356        41.82373         1.12402
C         19.46774        42.46980         0.66989
C         20.73225        44.61092         0.46355
C         19.45218        43.81158         0.44984
C         20.63453        45.87976        -0.42798
C         19.41196        46.72088        -0.15412
C         20.66527        48.80521        -0.52801
C         19.42227        48.07286        -0.32887
C         20.67559        50.18400        -0.70124
C         19.40556        50.92590        -0.88299
C         20.65864        53.04800        -0.64939
C         19.41627        52.37847        -0.69331
C         20.69422        54.45108        -0.40224
C         19.46028        55.13331         0.12653
C         20.65812        57.31091        -0.16760
C         19.47414        56.61990        -0.07848
C         20.69578        58.74532         0.03675
C         23.06326         3.43791        -0.12762
C         21.85823         4.12955        -0.06638
C         23.04826         6.12047         0.71247
C         21.83042         5.48303         0.34779
C         23.01830         7.52936         1.26726
C         21.81678         8.31250         0.78879
C         23.10666        10.40145         0.84364
C         21.86627         9.68972         0.69878
C         23.11682        11.82332         0.65685
C         21.90822        12.56802         0.53407
C         23.17485        14.56418        -0.04050
C         21.92787        13.92230         0.18020
C         23.21236        15.92307        -0.58833
C         21.95551        16.69378        -0.71888
C         23.29333        18.77503        -1.29140
C         21.97255        18.05464        -0.99973
C         23.24126        20.28032        -1.10371
C         21.97323        20.98159        -1.14214
C         23.13805        23.13943        -0.95191
C         21.91743        22.34081        -0.90881
C         23.11616        24.57377        -0.61583
C         21.94517        25.26677        -0.77953
C         23.26263        27.41436        -0.66476
C         21.99131        26.73594        -1.11758
C         23.29927        28.88289        -0.83314
C         21.99153        29.63932        -0.89783
C         23.21237        31.73887         0.03408
C         22.00847        31.12075        -0.60989
C         23.22862        33.21157         0.22726
C         21.98583        33.88577         0.35682
C         23.25753        36.04426         0.81248
C         21.95074        35.27101         0.75312
C         23.26057        37.37229         1.64219
C         21.95412        38.16380         1.44492
C         23.22393        40.39430         1.29888
C         21.94945        39.63910         1.20511
C         23.25250        41.74814         0.69972
C         21.99406        42.46199         0.52071
C         23.17157        44.44104        -0.36896
C         21.93871        43.75966         0.09097
C         23.16868        45.94029        -0.38762
C         21.89786        46.69202        -0.30713
C         23.16398        48.79852        -0.60199
C         21.91250        48.06752        -0.44721
C         23.13841        50.17499        -0.87000
C         21.90952        50.90812        -0.85019
C         23.11723        53.08131        -0.97503
C         21.89874        52.33051        -0.87445
C         23.11791        54.45796        -0.78422
C         21.90209        55.16324        -0.48968
C         23.14176        57.29417        -0.31397
C         21.91862        56.59790        -0.34170
C         23.16994        58.80499        -0.31630
C         21.87687        59.44435         0.12189
C         23.13157        61.41006         0.87543
C         21.92558        60.80574         0.55952
C         24.25690         4.06692         0.24212
C         25.53402         6.04259         1.15389
C         24.25096         5.40371         0.67579
C         25.52655         7.54676         1.00241
C         24.32252         8.26136         1.05327
C         25.60330        10.37648         0.97810
C         24.34708         9.68110         0.97005
C         25.57149        11.81783         0.95681
C         24.35636        12.51495         0.61997
C         25.59336        14.65860         0.40463
C         24.37133        13.89849         0.28134
C         25.64549        16.01085         0.15681
C         24.52968        16.68648        -0.50088
C         25.65095        18.86120        -0.29770
C         24.49713        18.15748        -0.57491
C         25.67878        20.29993        -0.54205
C         24.43018        20.96237        -0.89243
C         25.68286        23.19616        -0.66352
C         24.45546        22.42870        -1.00546
C         25.65317        24.51723        -0.37201
C         24.35303        25.23653        -0.06746
C         25.68060        27.40757        -0.23771
C         24.40477        26.71871        -0.37203
C         25.66082        28.85209        -0.12329
C         24.53651        29.57080        -0.39763
C         25.81088        31.75962        -0.10046
C         24.49964        30.99564         0.01354
C         25.71283        33.15238         0.48008
C         24.48742        33.82144         0.54133
C         25.74213        35.96241         1.05467
C         24.45865        35.16838         1.24015
C         25.71077        37.42439         1.09114
C         24.53090        38.12586         1.28165
C         25.74722        40.30825         0.86457
C         24.53744        39.60076         1.31117
C         25.71547        41.67915         0.57302
C         24.45644        42.36814         0.43391
C         25.69992        44.50363        -0.11721
C         24.48068        43.64413        -0.37402
C         25.66792        45.87025        -0.15681
C         24.41044        46.68576         0.03453
C         25.62700        48.78879        -0.64838
C         24.42493        48.10772        -0.50280
C         25.68209        50.19350        -0.95237
C         24.39738        50.88202        -1.18516
C         25.68107        53.09865        -1.02086
C         24.39828        52.39162        -1.28653
C         25.64378        54.43750        -0.75458
C         24.38783        55.23429        -1.02690
C         25.59510        57.26049        -0.07502
C         24.36971        56.61068        -0.41424
C         25.57449        58.61397         0.36419
C         24.39872        59.37589         0.35803
C         24.35026        60.69821         0.82579
C         26.74057         8.22670         0.82579
C         28.12568        10.22205         0.53691
C         26.83035         9.63388         0.84435
C         28.55807        11.46702         0.96651
C         26.66716        12.60897         1.33632
C         27.92743        14.69094         1.13035
C         26.73244        14.00414         1.03653
C         28.12353        15.99574         0.38615
C         26.83509        16.80161         0.65401
C         28.10718        18.84018         0.09116
C         26.89110        18.19628         0.10075
C         28.09989        20.31354        -0.05650
C         26.85187        21.00540        -0.42421
C         28.19716        23.17803        -0.54916
C         26.94690        22.43204        -0.93924
C         28.18419        24.57098        -0.39609
C         26.91464        25.24743         0.04306
C         28.15263        27.44336        -0.29396
C         26.89471        26.73614        -0.19899
C         28.11070        28.96672        -0.42886
C         26.91646        29.47712         0.44468
C         28.16843        31.60684         1.00427
C         26.92720        30.96098         0.48393
C         28.17390        33.11183         0.79096
C         26.95950        33.81862         0.79515
C         28.20320        36.00488         1.10552
C         26.92930        35.26914         0.97222
C         28.19728        37.46857         0.89070
C         26.96258        38.15393         0.90392
C         28.19468        40.27496         0.60623
C         26.96684        39.57124         0.77397
C         28.18469        41.69694         0.44178
C         26.94975        42.38899         0.33209
C         28.18920        44.47597         0.00533
C         26.96012        43.78321         0.04787
C         28.17343        45.87531        -0.53597
C         26.93343        46.62854        -0.10882
C         28.12218        48.70275        -0.97061
C         26.90323        48.08604        -0.41871
C         28.08496        50.06042        -1.23638
C         26.90168        50.86163        -1.08562
C         28.15676        53.03115        -0.46023
C         27.01545        52.37850        -1.26649
C         28.01067        54.36562        -0.08382
C         26.84084        55.13897        -0.32182
C         26.80150        56.50326        -0.02817
C         29.65489        12.24270         0.48281
C         30.73779        14.52560         0.22939
C         29.85546        13.60195         0.80325
C         30.67698        15.95862         0.35255
C         29.42206        16.72393         0.80817
C         30.57990        18.83205         0.10516
C         29.39271        18.17040         0.31241
C         30.63667        20.23161        -0.46288
C         29.39281        21.03211        -0.19667
C         30.63698        23.16594        -0.40063
C         29.41323        22.48009        -0.51752
C         30.62608        24.57715        -0.34923
C         29.40192        25.29237        -0.33666
C         30.61870        27.48372        -0.61301
C         29.35200        26.75703        -0.33043
C         30.66953        29.02246        -0.61519
C         29.40684        29.66855        -0.06032
C         30.73245        31.64258         0.80380
C         29.43569        30.90671         0.48823
C         30.64825        33.11850         0.52278
C         29.45196        33.77906         0.70368
C         30.65083        35.99817         0.43528
C         29.49287        35.25198         0.85984
C         30.74450        37.43431         0.85330
C         29.41591        38.16332         0.76462
C         30.67880        40.30157         0.56285
C         29.42841        39.56824         0.62059
C         30.66441        41.72839         0.56537
C         29.41850        42.41807         0.41782
C         30.64896        44.60647         0.45465
C         29.40594        43.82293         0.24265
C         30.68099        46.10283         0.17647
C         29.44400        46.68613        -0.40339
C         31.25520        49.14410        -0.29022
C         29.35976        47.96011        -0.91199
C         31.01284        50.50451         0.01304
C         29.92061        51.21554        -0.54809
C         29.38371        52.41408        -0.06491
C         31.81594        16.68443         0.05237
C         33.05082        18.82424         0.06554
C         31.86277        18.12624         0.10755
C         33.10204        20.29727         0.39836
C         31.86928        21.02672        -0.08788
C         33.15543        23.09241        -0.40349
C         31.86782        22.38371        -0.21983
C         33.15071        24.57965        -0.46722
C         31.90025        25.30376        -0.00408
C         33.19445        27.45317        -0.35735
C         31.90385        26.73221        -0.49697
C         33.18957        28.82113        -0.20276
C         31.90303        29.48919         0.22047
C         33.15851        31.67725         0.06534
C         31.97650        30.98537         0.26111
C         33.18712        33.13529         0.09335
C         31.95700        33.89546         0.55467
C         33.10754        36.05137        -0.12106
C         31.81113        35.25759        -0.16683
C         33.10572        37.40395        -0.01756
C         31.79537        38.15595         0.01043
C         33.14248        40.28159         0.49738
C         31.89972        39.60720         0.41013
C         33.14764        41.71082         0.99142
C         31.89088        42.46437         0.61854
C         33.15665        44.59424         0.58872
C         31.91338        43.85437         0.55638
C         33.14013        46.02210         0.50837
C         32.01480        46.80256         0.23264
C         32.13204        48.23329         0.31629
C         34.39064        21.00415         0.05484
C         35.63583        23.11992        -0.24725
C         34.43155        22.36531        -0.19730
C         35.67043        24.54829        -0.34503
C         34.43245        25.30747        -0.39008
C         35.65605        27.44380        -0.48202
C         34.42666        26.70374        -0.42206
C         35.64022        28.82359        -0.46279
C         34.41559        29.56113        -0.27864
C         35.65428        31.68825        -0.25308
C         34.40066        30.96415        -0.20164
C         35.63425        33.14287        -0.22481
C         34.35406        33.82447        -0.15780
C         35.64468        36.00486        -0.14329
C         34.35991        35.29670        -0.51711
C         35.66064        37.48020        -0.20784
C         34.34989        38.20641        -0.14885
C         35.61611        40.31474         0.40693
C         34.34972        39.62304         0.26918
C         35.59747        41.75204         0.52283
C         34.41513        42.46295         0.65511
C         34.37077        43.88325         0.62028
C         36.88014        25.24316        -0.33406
C         38.08053        27.45832         0.03585
C         36.96635        26.70944        -0.66314
C         38.08865        28.81754         0.03594
C         36.93832        29.54967        -0.62321
C         38.14838        31.69660        -0.22119
C         36.85586        30.99975        -0.29032
C         38.13722        33.19608        -0.19302
C         36.82213        33.87175        -0.19062
C         38.15500        36.04472        -0.11681
C         36.82163        35.31324        -0.07940
C         38.05384        37.47436         0.35079
C         36.89713        38.19245         0.20362
C         36.81816        39.61317         0.40801
C         39.19820        29.59567         0.55253
C         40.38290        31.73427         0.91658
C         39.27458        30.95737         0.40418
C         40.38054        33.09666         0.94819
C         39.28176        33.90225         0.44503
C         39.25101        35.25636         0.55431
O         29.02804        35.62051         2.27228
O         23.72280        31.08894         1.26157
O         18.20999        45.55337         1.64562
O         27.06189        47.57302         0.99635
O         23.15767        45.18870        -1.66664
O         29.26417        50.67177        -1.66816
O         30.50893        48.61178        -1.35325
O         21.01330        37.78731         2.53424
O         16.36649        48.35483        -1.83727
O          9.71693        30.60887        -0.77125
O         27.74938        12.05100         1.99040
O         24.10609        16.03428        -1.76486
O         23.95804        40.20313         2.53601
O         17.52647        18.46271        -2.56212
O         30.42900        45.58785         1.54840
O         31.28569        26.92767        -1.81662
O         33.06139        23.81474        -1.70738
O          8.11264        31.97103         2.39725
O         37.32803        29.48854        -2.11711
O         11.47916        26.80836         1.71568
O         19.65062        38.82920        -0.60857
O         28.81536        20.88813         1.14366
O         23.86265        22.93287        -2.25382
O         14.81179        33.63614        -0.74482
O         28.98760        14.14393         1.81693
O         24.37555        51.57909        -2.50155
O         22.73668        29.34014        -2.13629
O         18.66631        50.37437        -2.07138
O         12.90371        30.97664         2.30294
O         38.47639        32.47705        -1.43756
O         17.01473        20.89536         0.73759
O         16.56049        40.03966         2.44952
O         35.04301        37.99405        -1.45953
O         21.59424        31.90952        -1.77471
O         31.17462        37.45110         2.24834
H         30.45900        36.99991         2.75780
O         12.82054        37.41469        -0.92506
H         12.21240        37.62805        -1.66307
O          8.54188        39.95604        -0.10631
H          8.54172        40.09923         0.86219
O         27.04550        22.30889        -2.39537
H         26.14150        22.17197        -2.75462
O         14.02788        39.91358         2.83192
H         14.85834        39.86044         3.36322
O          9.56177        34.01148         3.15023
H          9.15196        33.20720         3.54722
O         19.20923        31.22965        -2.32121
H         20.11264        31.30844        -2.72005
O         27.82005        29.33597        -1.79914
H         28.67794        29.34643        -2.28760
O         22.85757         7.39667         2.72566
H         21.99298         6.96084         2.88296
O         31.28501        38.11709        -1.36171
H         31.92197        38.59900        -1.93103
O         18.03653        27.62821        -2.46125
H         18.77289        28.18752        -2.79133
O         31.50870        34.95841        -1.55359
H         31.43137        35.81728        -2.02370
O         36.63717        30.53436        -2.81871
H         37.25896        31.30619        -2.74427
O         27.12810        28.95049         1.77813
H         27.42502        29.69876         2.35423
O         20.56555        11.66280         2.29178
H         20.66573        12.53666         2.72355
O         17.98132        49.06042         1.30950
H         18.04809        48.19721         1.77205
O         27.30325        52.61079        -2.67092
H         26.50602        52.34048        -3.17809
O         19.50996        16.23836        -2.58558
H         20.18147        16.81885        -3.00607
O         28.23028        15.70429        -1.02265
H         27.34332        15.45454        -1.36155
O         20.37642        22.91465         0.82484
H         21.07838        23.37807         1.32744
O         20.77763        10.64510        -1.20562
H         20.67943         9.76991        -1.63508
O         26.08613        31.88875        -1.54490
H         26.54625        31.06527        -1.83899
O         26.94068        25.13377         1.52699
H         27.20061        24.21383         1.75202
O         31.63673        28.99737         1.57554
H         31.43833        29.77582         2.15134
O         34.36074        35.31971        -1.98702
H         34.53326        36.25858        -2.24325
O         30.69546        20.07039        -1.91446
H         31.52862        19.60135        -2.13229
O         19.73478        22.73325        -2.76668
H         18.90637        22.57376        -3.26683
O         12.57826        37.71335         2.70338
H         12.95580        38.56683         3.04045
O         17.13444        14.34805         2.07447
H         17.83963        13.74058         2.38493
O         24.19556        25.14100         1.39209
H         25.08085        25.35182         1.78556
O         23.55202        18.56156        -2.71273
H         23.71194        17.59334        -2.82684
O         33.03029        20.35628         1.87731
H         32.20387        19.90101         2.14829
O         26.66816         5.46336         0.50254
H         26.58305         5.62030        -0.45985
O         12.30068        33.71915         3.23281
H         11.42411        33.99452         3.59928
O         24.29132        46.83739         1.48524
H         25.15119        47.20909         1.79644
O         20.80721        20.17865        -3.02482
H         20.75858        21.11582        -3.33166
O         20.82907        42.10532         2.55517
H         20.93303        43.08295         2.64927
O         29.43454        16.80223         2.26069
H         29.60955        15.89426         2.60189
O         22.07467        26.73289        -2.58561
H         22.26028        27.66625        -2.85674
O         28.18663        31.40586         2.46606
H         29.11598        31.58206         2.76372
O         32.20754        34.15966         1.97723
H         31.61459        34.89475         2.25649
O         23.31190        59.17128        -1.73813
H         24.19800        58.86538        -2.02853
O         16.06189        36.17441         2.71543
H         15.77934        35.37517         3.20653
O         30.89307        31.58232         2.29349
H         31.49925        32.33060         2.52945
O         14.37015        22.55216        -2.65059
H         13.51357        22.14553        -2.90518
O         20.94176        45.01549         1.84898
H         20.07603        45.38094         2.16238
O         20.48393        45.41760        -1.80212
H         21.39471        45.25542        -2.15557
O         26.69151        16.91729         2.09737
H         27.56514        17.21445         2.45546
O         32.00655        25.34415         1.44722
H         31.28080        25.90051         1.80115
O         24.42459        55.48337        -2.48333
H         23.59807        55.95682        -2.71952
O         15.56817        37.27831        -0.74579
H         14.61525        37.11563        -0.95773
O         27.96506        45.70174        -1.98738
H         28.68049        45.12811        -2.33423
O         33.11815        41.61840         2.45846
H         33.07923        42.53393         2.80855
O         24.37208        34.79036         2.63134
H         24.23610        35.61367         3.16450
O         37.30278        26.72529        -2.09469
H         36.49050        26.50113        -2.59615
O         23.49657        36.48124        -0.55400
H         23.41779        35.70422        -1.14745
O         24.65871        43.14531        -1.73667
H         24.41064        43.88371        -2.34005
O         30.76902        29.45617        -1.98303
H         31.22000        28.72741        -2.47655
O         16.74016        15.99882        -2.47391
H         17.54982        16.26706        -2.97279
O         19.54708        54.96588         1.61490
H         20.36884        55.42035         1.90145
O         23.36453        37.11399         3.05863
H         22.45302        37.18926         3.43540
O         38.52805        36.11617        -1.53500
H         37.79634        36.56340        -2.01119
O         18.13301        33.65594        -1.70880
H         18.44577        32.88122        -2.24216
H          4.94206        31.18230         0.19567
H          4.92245        33.58992         0.64773
H          7.40875        26.88775        -0.04474
H          6.21042        29.05493        -0.12913
H          6.25806        35.68705         0.45171
H          7.55580        37.68815         0.00965
H          9.86033        22.61108        -0.40009
H          8.65966        24.73770        -0.20293
H          9.68632        39.08441        -1.56832
H          9.98300        41.89921        -0.57219
H         12.28042        18.34077        -0.61440
H         11.07117        20.48570        -0.70419
H         11.12049        44.11124        -0.53432
H         12.26120        46.30726        -0.52127
H         14.77635        14.45453         0.74052
H         13.51668        16.27801        -0.19507
H         13.40107        48.50539        -0.33743
H         14.70152        50.78736        -0.20684
H         17.18553         9.94070         0.56152
H         15.96756        12.10522         0.44055
H         15.98825        52.95054        -0.38595
H         17.23813        54.98564        -0.08964
H         19.65890         5.67838         0.17265
H         18.39949         7.77921         0.49560
H         18.53592        57.17163         0.08617
H         19.74723        59.25306         0.27254
H         23.07789         2.38945        -0.45677
H         20.91805         3.63372        -0.34715
H         23.13707        62.44638         1.24195
H         20.98105        61.34621         0.72095
H         25.20919         3.51921         0.20940
H         25.64740         5.81075         2.24938
H         26.50494        59.06099         0.74701
H         25.27006        61.17333         1.19797
H         27.65946         7.63278         0.71235
H         28.80529         9.61465        -0.07977
H         28.85765        54.86267         0.41460
H         27.72015        57.00185         0.31529
H         30.28974        11.79954        -0.29717
H         31.57019        14.12296        -0.36842
H         31.55424        50.96517         0.85153
H         29.98149        52.96666         0.67817
H         32.74609        16.14780        -0.18955
H         33.99791        18.26298         0.04083
H         34.10785        46.53713         0.61099
H         32.97687        48.62719         0.90318
H         35.33180        20.45546         0.21722
H         36.59376        22.58719        -0.14470
H         36.55169        42.29377         0.43250
H         35.31606        44.43977         0.52746
H         37.82281        24.67408        -0.31395
H         38.92576        26.89309         0.45771
H         38.98152        37.99160         0.64066
H         37.75593        40.16298         0.57751
H         40.02131        29.05532         1.04581
H         41.24429        31.18474         1.32525
H         41.24452        33.62942         1.37300
H         40.08279        35.79673         1.03225
