         232
 CSIRO Nanostructure Databank - Neutral Graphene Oxide Data Set
C        -11.05103         0.63281        -0.74186
C         -9.87416         1.42255        -0.44294
C         -8.67102         0.70698        -0.02034
C         -7.56292         1.43088         0.37851
C         -6.36650         0.71390         0.96766
C         -5.05413         1.43271         0.66874
C         -3.78268         0.75483         1.11697
C         -2.50217         1.41930         0.62808
C         -1.22973         0.71585         1.05073
C          0.00881         1.46360         0.70028
C          1.18598         0.65767         0.29648
C          2.40124         1.40101        -0.10242
C          3.70058         0.71070         0.09405
C          4.85428         1.28126        -0.69296
C          6.14846         0.61771        -0.29628
C          7.36815         1.34354        -0.43850
C          8.54463         0.52954        -0.60517
C         10.34542         1.58815        -0.14642
C         11.34610         0.60626         0.25206
C         -9.88274         2.80188        -0.55231
C         -8.74768         3.62727        -0.19325
C         -7.59995         2.90754         0.42883
C         -6.31926         3.67021         0.61025
C         -5.03267         2.90779         0.50276
C         -3.75962         3.65859         0.78145
C         -2.46720         2.92608         0.93700
C         -1.12397         3.68666         0.89277
C         -0.09541         2.86627         0.09867
C          1.23626         3.57796         0.02371
C          2.41807         2.88526        -0.08735
C          3.66759         3.56437        -0.31134
C          4.88265         2.81480        -0.66289
C          6.23242         3.54515        -0.56170
C          7.47033         2.75805        -0.37655
C          8.67593         3.45460         0.04063
C          9.92336         2.76292         0.41708
C         -8.70062         4.98016        -0.43437
C         -7.55560         5.84801         0.06636
C         -6.26688         5.04474         0.00876
C         -4.94542         5.70861        -0.21736
C         -3.75060         5.13906         0.49694
C         -2.45046         5.87682         0.42480
C         -1.18352         5.12221         0.38693
C         -0.03471         5.77349         0.03294
C          1.20776         5.02473        -0.38508
C          2.50513         5.72929        -0.09898
C          3.70876         4.98275        -0.19702
C          4.98948         5.65065        -0.10807
C          6.18422         4.97019        -0.18419
C          7.45898         5.65309         0.04971
C          8.63159         4.83664         0.23944
C         -7.38658         7.23974        -0.51886
C         -6.18839         7.86759        -0.68843
C         -4.86586         7.12973        -0.78691
C         -3.64153         7.92201        -0.36886
C         -2.44997         7.27217        -0.07479
C         -1.19640         7.95787        -0.07814
C          0.00234         7.22716        -0.08529
C          1.26459         7.89314        -0.15557
C          2.50018         7.16221        -0.08418
C          3.73120         7.85765        -0.03754
C          5.01075         7.11530         0.27633
C          6.23797         7.79088        -0.33661
C          7.48830         7.03114         0.05607
C         -6.08847         9.28511        -1.01914
C         -4.90134         9.94910        -1.05868
C         -3.62577         9.33543        -0.69668
C         -2.45532        10.05607        -0.61039
C         -1.21030         9.45678         0.00383
C          0.11150        10.06933        -0.35305
C          1.29602         9.33628        -0.28162
C          2.57632         9.98831        -0.30116
C          3.76369         9.27556        -0.12556
C          5.06081         9.94986        -0.00724
C          6.22657         9.27179        -0.03263
C        -11.05039        -0.72804        -0.67124
C         -9.84852        -1.47741        -0.35917
C         -8.66099        -0.74705        -0.04129
C         -7.45719        -1.46907         0.15944
C         -6.23061        -0.70233         0.42871
C         -4.95767        -1.46249         0.70662
C         -3.77727        -0.72924         1.29147
C         -2.47042        -1.47438         1.34391
C         -1.20478        -0.76708         1.01643
C         -0.02447        -1.45195         0.85810
C          1.24247        -0.78043         0.65668
C          2.43034        -1.47778         0.60782
C          3.70582        -0.73556         0.46663
C          4.95761        -1.48052         0.25605
C          6.15461        -0.75575         0.02512
C          7.45424        -1.46420         0.35768
C          8.66396        -0.76551        -0.19370
C          9.93857        -1.47314        -0.18931
C         11.17816        -0.74357         0.07502
C         -9.81265        -2.87344        -0.39849
C         -8.58526        -3.60882        -0.28322
C         -7.36558        -2.85892        -0.04330
C         -6.11264        -3.56298         0.14378
C         -4.98397        -2.93427         0.63620
C         -3.85816        -3.71116         1.30736
C         -2.51325        -2.96463         1.35181
C         -1.27752        -3.68925         0.90251
C         -0.00780        -2.92612         0.72627
C          1.27743        -3.64509         0.79587
C          2.47015        -2.93446         0.72320
C          3.75222        -3.61038         0.64089
C          4.93406        -2.89725         0.37907
C          6.15597        -3.59605        -0.10585
C          7.44854        -2.90736        -0.07842
C          8.63962        -3.58824        -0.31694
C          9.89909        -2.85811        -0.23214
C         -8.55913        -4.99958        -0.38637
C         -7.28748        -5.72933        -0.73208
C         -6.03272        -5.00312        -0.24660
C         -4.83663        -5.80195         0.16091
C         -3.68929        -5.13304         0.82285
C         -2.51282        -5.81846         0.98163
C         -1.23787        -5.15758         1.08615
C         -0.05840        -5.85818         0.91641
C          1.26053        -5.12273         1.12869
C          2.51175        -5.82414         0.66055
C          3.76383        -5.09803         0.74947
C          5.05420        -5.88042         0.32498
C          6.17397        -5.08043        -0.25915
C          7.46161        -5.76894        -0.50956
C          8.62447        -5.00993        -0.58275
C         -7.26342        -7.22122        -0.45445
C         -6.14110        -7.95883        -0.16773
C         -4.90644        -7.28169         0.26054
C         -3.83069        -7.90865         0.81085
C         -2.48942        -7.31960         1.10734
C         -1.30019        -7.95695         0.37987
C         -0.10288        -7.25623         0.51927
C          1.16600        -7.82368         0.00008
C          2.46715        -7.25808         0.49799
C          3.77054        -8.03842         0.07591
C          4.97744        -7.25740        -0.12765
C          6.11995        -7.83506        -0.76644
C          7.35385        -7.16044        -0.80906
C         -6.16983        -9.39157        -0.49292
C         -5.11634       -10.24672        -0.61160
C         -3.79405        -9.90108        -0.09591
C         -2.57301        -9.96383        -0.69105
C         -1.33283        -9.27416        -0.26710
C         -0.15399        -9.87472        -0.65969
C          1.14511        -9.19785        -0.60787
C          2.41463        -9.93318        -0.80936
C          3.63226        -9.33410        -0.64116
C          4.85845        -9.92094        -1.14710
C          6.02328        -9.21796        -1.20021
O         -0.64678         3.81764         2.24498
H         -1.43635         3.93260         2.82126
O         -5.54752         4.86165        -1.25775
O         -3.91981         0.17318         2.43732
O          5.81022        -4.24702        -1.41291
O         -3.24247         3.30064         2.10847
O         -7.14364         3.45091         1.78377
O         -5.24113        -0.85507        -0.62778
O         -0.84757        -3.33854        -0.45666
O          3.22391        -8.08178         1.43556
O         -7.26850        -5.68336        -2.20108
H         -6.31455        -5.64274        -2.45529
O         -0.40463         1.31892         2.08836
O          1.40118        -5.15406         2.60644
H          2.34519        -5.00303         2.83237
O          1.11421         5.01870        -1.86395
H          1.90015         4.54113        -2.20718
O         -3.88802        -9.26237         1.16549
O          1.51797         0.85300        -1.14391
O          3.92395         0.36296         1.47916
O         -5.00712         2.02293        -0.67023
O          4.76534        -5.60575         1.72542
O         -6.56832         0.63595         2.39302
H         -6.74266         1.54745         2.72052
O         -4.31726        -3.85503         2.68391
H         -3.79671        -3.21382         3.22885
O         -2.50813         1.20851        -0.80145
H         -3.37659         1.50853        -1.17064
O         -1.36708         9.75936         1.46738
H         -2.14207         9.24253         1.77994
O         -2.24334        -7.57254         2.52898
H         -2.51024        -8.50352         2.69559
O          6.10377         7.65943        -1.78348
H          6.90832         8.03246        -2.19936
O          4.60252         0.89788        -2.07027
H          5.10642         1.52818        -2.63552
O         -7.81058         6.09365         1.48314
H         -7.82838         5.21588         1.93773
O         -4.64276         6.99466        -2.22539
H         -5.17283         6.21910        -2.52461
O         -4.94175        -5.24026        -1.22067
O         -2.32811        -2.25373         2.61043
O          9.61089         1.14851        -1.27027
O          5.16743         7.18295         1.72481
H          4.37175         6.78467         2.13573
O         -3.28858         5.86529         1.67075
O         -0.57665         2.77352        -1.25548
H          0.01296         2.14586        -1.73487
O          7.52999        -1.46227         1.82638
H          8.36930        -1.90535         2.07373
O          5.55791         3.31928        -1.86405
O          1.15127        -7.94995        -1.46134
H         12.04130        -1.38487         0.32182
H         12.29630         0.96239         0.68128
H         10.51514         3.21969         1.22484
H          9.55840         5.34802         0.54181
H          8.44330         7.56575         0.18018
H          7.18405         9.80918         0.05542
H          5.05621        11.04337         0.12100
H          2.60831        11.08499        -0.38724
H          0.16314        11.16387        -0.46154
H         -2.46448        11.13817        -0.81401
H         -4.89264        11.02129        -1.30733
H         -7.02258         9.83375        -1.21638
H         -8.30545         7.84686        -0.57347
H         -9.57181         5.46898        -0.89776
H        -10.79296         3.30595        -0.91150
H        -11.97147         1.16658        -1.02196
H        -11.96858        -1.28969        -0.89869
H        -10.73703        -3.42954        -0.61662
H         -9.50811        -5.53893        -0.53240
H         -8.15455        -7.76455        -0.81033
H         -7.14220        -9.74537        -0.87397
H         -5.27181       -11.22283        -1.09753
H         -2.49410       -10.52424        -1.63517
H         -0.18733       -10.88682        -1.09100
H          2.36015       -10.92245        -1.29062
H          4.81510       -10.94729        -1.54082
H          6.92650        -9.68947        -1.61443
H          8.25118        -7.71332        -1.12447
H          9.57477        -5.50247        -0.83882
H         10.83616        -3.43521        -0.22215
