         260
 CSIRO Nanostructure Databank - Neutral Graphene Oxide Data Set
C         30.27908        32.06136         0.46490
C         30.54667        33.22724         0.78156
C         30.62223        36.34689         1.49501
C         30.51439        37.57432         1.24430
C         30.61566        40.55512         0.23525
C         30.43237        41.74294        -0.13364
C         32.64756        29.46168         0.10202
C         31.42737        29.84445        -0.26327
C         32.82948        31.83212         1.51180
C         30.95417        30.80240         0.62332
C         32.78367        33.18518         1.64122
C         31.47750        33.96728         1.74770
C         32.85232        36.05378         0.91919
C         31.65944        35.41661         1.39385
C         32.87227        37.47905         0.69921
C         31.65218        38.27343         0.72284
C         32.84346        40.12974        -0.52403
C         31.63463        39.59219         0.26980
C         32.87522        41.69312        -0.55410
C         31.46755        42.27750        -1.11299
C         32.79534        44.14413        -1.82207
C         31.76756        43.73154        -1.26799
C         35.28497        27.61627        -0.15479
C         35.18600        29.10543        -0.04601
C         33.90846        29.69613         0.49938
C         35.27534        31.58233         1.65342
C         34.03466        31.19743         0.83499
C         35.35448        33.12804         1.52974
C         34.07999        33.92854         1.50762
C         35.18945        35.56369         0.04690
C         34.05427        35.22357         0.77559
C         35.40459        37.75209         1.15474
C         34.10515        38.25057         0.56572
C         35.38187        40.25912        -0.16814
C         34.11266        39.52819         0.05151
C         35.39947        41.60008        -0.88311
C         34.11522        42.19113        -1.28933
C         35.42095        44.26527        -2.10557
C         34.11472        43.52522        -1.94227
C         35.61303        45.71857        -2.10188
C         37.68769        27.24812         0.14049
C         36.32958        26.98652        -0.35818
C         37.69787        28.68906         0.65354
C         36.47424        29.57361         0.69206
C         37.81911        31.54323         1.47481
C         36.53301        30.82978         1.23267
C         37.84153        33.03841         1.19620
C         36.56876        33.75339         0.95684
C         37.76386        35.79921         0.13154
C         36.50590        34.98554         0.34478
C         37.76620        37.30637         0.20508
C         36.63290        38.09847         0.36001
C         37.93138        40.06293        -0.72061
C         36.60593        39.40427        -0.29733
C         37.97048        41.51441        -0.96705
C         36.69927        42.09212        -1.58285
C         37.96178        44.38840        -1.39746
C         36.68433        43.61731        -1.54319
C         38.03523        45.85873        -1.81501
C         36.66300        46.35007        -1.97469
C         40.14844        24.44574        -0.82343
C         39.35459        25.41071        -0.62886
C         40.03280        27.64577        -0.69053
C         38.93813        26.70773        -0.45836
C         40.16353        28.83622        -0.01616
C         39.04035        29.35650         0.80218
C         40.34881        31.55787         1.03169
C         39.10097        30.79145         1.25310
C         40.34823        32.91525         0.83882
C         39.04529        33.53835         0.39417
C         40.31096        35.80200         0.62548
C         39.08164        35.06247         0.22408
C         40.22947        37.28734         0.58097
C         39.04215        37.97440        -0.02648
C         40.40470        40.08908        -0.33046
C         39.12604        39.33120        -0.29875
C         40.38513        41.55505        -0.47520
C         39.18718        42.20795        -0.85854
C         40.31437        44.46611        -0.52586
C         39.30462        43.66090        -1.31501
C         40.40935        45.90979        -0.74779
C         39.25000        46.63588        -1.44930
C         40.09655        48.65781        -0.36683
C         39.30925        48.06098        -1.11555
C         42.47291        24.61175        -1.34316
C         41.33658        23.78034        -1.03444
C         42.43554        27.85474        -1.56413
C         41.06545        27.24812        -1.68209
C         42.62073        29.07943        -0.75440
C         41.49276        29.48552         0.11920
C         42.87671        31.57519         0.79138
C         41.60420        30.79429         0.89850
C         42.80063        33.04232         0.93117
C         41.58203        33.68953         0.88427
C         42.69214        35.88452         1.41106
C         41.48072        35.15004         0.95043
C         42.70622        37.38629         1.34534
C         41.48389        38.07231         0.79760
C         42.93884        40.17810         0.32946
C         41.65521        39.39795         0.11376
C         42.77788        41.66693         0.51287
C         41.66880        42.35770        -0.32107
C         42.48920        44.54760         0.79638
C         41.29624        43.72395         0.34377
C         42.30337        45.88093         0.97447
C         41.38628        46.70001         0.13228
C         42.49297        48.74151         0.63705
C         41.28351        48.23069         0.29424
C         43.25489        25.53201        -1.53390
C         44.93707        27.52658        -1.22011
C         43.66893        26.92616        -1.67781
C         45.05003        29.10807        -1.35970
C         43.83242        29.71175        -0.70862
C         45.11327        31.89880        -0.56733
C         44.03305        30.98634         0.01423
C         45.28138        33.16811         0.29029
C         44.09773        33.74771         1.01516
C         45.27994        35.98848         1.24929
C         44.06167        35.19500         1.38858
C         45.30238        37.35532         1.87709
C         43.99567        38.12545         1.50480
C         45.25922        40.28170         1.48794
C         44.13490        39.51056         0.94483
C         45.28368        41.79929         1.46506
C         43.90905        42.45026         1.13569
C         44.99153        44.73067         0.41932
C         43.85120        43.99734         1.25233
C         45.10485        46.27421         0.35239
C         44.17213        47.21500         1.00296
C         43.77256        48.46266         0.53250
C         47.33124        27.55964        -0.63674
C         46.12862        27.08288        -0.80282
C         47.57457        28.91206        -0.75605
C         46.36410        29.74161        -0.87762
C         47.68887        31.87967        -0.72770
C         46.41277        31.10519        -0.68979
C         47.70612        33.35173        -0.42566
C         46.42944        34.07632        -0.05055
C         47.76491        36.11740         0.83662
C         46.44600        35.45890         0.54332
C         47.80673        37.56754         1.31431
C         46.51074        38.22321         1.63256
C         47.75515        40.28955         0.18407
C         46.39396        39.60200         2.08766
C         47.69940        41.76609         0.17782
C         46.46869        42.50549         0.64872
C         47.40659        44.53910        -0.68956
C         46.30445        43.95339         0.21583
C         47.27118        45.99717        -0.69676
C         46.46415        46.66351        -0.03810
C         50.18921        29.00589        -0.48144
C         48.89051        29.56785        -0.85914
C         50.30064        31.80913        -0.54062
C         48.98612        31.10633        -0.82383
C         50.25662        33.19308         0.08760
C         48.97512        33.96847         0.10656
C         50.32215        36.14605         0.47655
C         49.00774        35.47593         0.25323
C         50.36243        37.54457         1.17658
C         49.05848        38.30497         0.94168
C         50.25463        40.29467        -0.00906
C         49.03011        39.57412         0.44041
C         50.18485        41.81124        -0.01440
C         48.83535        42.44166        -0.20515
C         50.04034        44.43045        -0.90214
C         48.71156        43.82550        -0.77436
C         51.28249        29.55397        -0.32004
C         52.63589        31.73418         0.37091
C         51.62818        30.96904        -0.37506
C         52.60012        32.98370         0.39142
C         51.54613        33.94206         0.33424
C         52.72932        36.08925         0.88555
C         51.58660        35.30388         0.52335
C         52.66773        37.36591         0.74441
C         51.63513        38.26398         0.67726
C         52.67038        40.56742         0.02080
C         51.59264        39.57163         0.02761
C         52.63562        41.76380        -0.30443
C         51.48184        42.65027        -0.11204
C         51.15732        43.94815        -0.70937
O         43.29295        35.38798         2.64170
O         49.40724        33.23720         1.29815
O         43.15576        27.66098        -2.81031
O         35.47971        37.22048         2.24732
O         37.94736        32.51974         2.55273
O         51.27873        31.60735        -1.60484
O         41.34888        39.38086        -1.31359
O         50.80761        39.66747        -1.21314
O         47.76903        43.86022        -1.89355
O         37.65075        27.51084         1.55707
O         50.85041        42.44569         1.15533
O         40.79713        26.51460        -2.62155
O         41.71605        46.38951        -1.26836
O         34.81754        43.63398        -3.22400
O         40.47473        38.00808         1.85712
O         47.67590        32.92261        -1.80997
O         44.50897        45.45358        -0.72669
O         43.20289        46.56510         1.79842
O         35.56360        41.49343         0.60868
O         44.99497        29.41028        -2.79965
O         37.08872        39.32425        -1.68640
O         47.40901        40.30266         2.42112
O         49.01761        30.34683        -2.07598
O         38.54001        35.45213        -1.09128
O         37.08604        44.17496        -0.25538
O         49.66998        36.17325        -0.83420
O         39.01454        46.20376        -2.80436
O         43.99316        30.90744         1.45793
O         47.98908        36.42029         2.23746
O         45.16272        33.01594         1.72277
O         46.17230        35.20759        -0.93027
O         43.05326        38.05733         2.60767
O         31.73779        31.02045         1.82876
O         46.91045        43.62769         1.49341
O         39.31232        29.69291         2.19573
O         34.90331        33.84870         2.72946
O         43.99399        39.69047        -0.53068
O         42.80190        41.92912         1.95077
O         41.80539        29.53899         1.56844
O         46.74064        39.65638        -0.19150
O         45.54148        42.12569         2.84514
H         46.42644        41.71844         3.05987
O         30.89558        33.89210         3.03655
H         30.82579        32.94852         3.29254
O         34.14849        31.87998        -0.44065
H         34.65669        31.28854        -1.05492
O         35.02916        31.22823         3.01793
H         35.67908        31.69921         3.58264
O         32.94256        42.19155         0.78787
H         33.87183        42.09066         1.11342
O         32.75590        39.60901        -1.86212
H         32.06753        40.11769        -2.35439
O         35.35213        29.64351        -1.39126
H         34.73162        29.17190        -1.98784
O         45.30046        37.19385         3.31873
H         44.45022        36.74342         3.55142
O         46.16076        28.80522        -3.40728
H         46.73493        29.58000        -3.62748
O         41.49510        22.45001        -0.95226
H         40.64763        22.01436        -0.73423
O         39.82476        43.62303        -2.66924
H         40.78078        43.37116        -2.61590
O         31.17847        41.72560        -2.37433
H         30.37456        42.14728        -2.74331
O         42.23573        42.63987        -1.62381
H         42.40491        41.78471        -2.07715
O         35.10762        36.44091        -0.99181
H         35.96733        36.51812        -1.45423
O         44.67329        32.32124        -1.87234
H         45.43859        32.73448        -2.33287
O         40.56891        43.38009         1.56109
H         41.22150        42.99023         2.19295
O         36.64604        41.70182        -2.96190
H         36.77636        40.72581        -3.00502
O         38.80960        32.95140        -0.92279
H         38.64138        33.69630        -1.55125
O         50.53084        37.33648         2.58290
H         49.70397        36.94346         2.94757
O         44.03543        44.31442         2.62883
H         44.68525        43.67883         3.02094
