         667
 CSIRO Nanostructure Databank - Neutral Graphene Oxide Data Set
C          6.12299        31.96275        -1.05933
C          6.16536        33.32135        -1.15686
C          8.44946        27.62736        -0.66675
C          8.50161        29.02585        -0.80867
C          7.30109        29.79499        -0.89944
C          8.59989        31.87233        -1.01095
C          7.33492        31.18264        -0.98720
C          8.64438        33.28231        -1.10116
C          7.42122        34.03149        -1.18881
C          8.70575        36.11600        -1.32676
C          7.46654        35.41924        -1.30932
C          8.72396        37.53785        -1.40224
C         10.82868        23.18010        -0.03343
C         10.77845        24.61984        -0.26829
C          9.57025        25.44670        -0.26179
C         10.88223        27.53741        -0.44360
C          9.62863        26.84549        -0.47386
C         10.98110        28.93147        -0.70580
C          9.76714        29.70894        -0.85474
C         11.07032        31.82269        -1.05156
C          9.81474        31.11922        -0.96271
C         11.13190        33.20637        -1.12662
C          9.90485        33.97272        -1.15077
C         11.22044        36.14865        -1.46531
C          9.92690        35.37162        -1.25970
C         11.10453        37.47480        -0.72253
C          9.90324        38.27202        -1.17437
C         11.17655        40.38573        -0.90815
C          9.97294        39.66316        -1.21387
C         11.22936        41.79291        -0.98128
C         13.27655        18.95717        -0.16013
C         13.24304        20.33632         0.14111
C         12.06910        21.07283         0.03006
C         13.28158        23.21402         0.42857
C         12.03482        22.50155         0.13532
C         13.25796        24.59778         0.50499
C         12.10564        25.35963        -0.01050
C         13.37447        27.41392        -0.14132
C         12.02123        26.85556         0.26622
C         13.48177        28.78280        -0.74511
C         12.23653        29.57780        -0.81671
C         13.64409        31.71944        -1.18990
C         12.30424        31.01003        -1.14467
C         13.77331        33.26396        -1.18485
C         12.41190        33.94483        -1.50283
C         13.52901        35.96490        -0.39267
C         12.44019        35.37709        -1.00054
C         13.64329        37.45274        -0.44823
C         12.40602        38.23359        -0.79496
C         13.58148        40.34617        -0.26794
C         12.37480        39.68315        -0.59605
C         13.61265        41.78052        -0.33212
C         12.43617        42.48409        -0.75142
C         13.69156        44.59672        -0.78889
C         12.50054        43.89272        -0.94225
C         13.70969        46.01046        -0.93944
C         15.79584        14.75169        -0.60212
C         15.76427        16.15478        -0.53350
C         14.53610        16.85571        -0.42774
C         15.75130        18.99064        -0.15123
C         14.49471        18.24843        -0.24913
C         15.75767        20.30908         0.24111
C         14.48844        20.96718         0.71898
C         15.72570        23.13478         0.87116
C         14.52596        22.48249         0.63505
C         15.70922        24.57655         1.35181
C         14.46127        25.34735         0.93875
C         15.85695        27.46253         0.46072
C         14.54693        26.79276         0.55324
C         15.93274        28.76627         0.06065
C         14.81571        29.45896        -0.63815
C         15.80617        31.65297         0.13347
C         14.88815        30.95878        -0.79658
C         15.37281        32.84201         0.65804
C         14.50627        33.81017         0.03663
C         15.59041        35.94832         1.20220
C         14.58767        35.18237         0.25241
C         15.73717        37.44965         0.88432
C         14.74472        38.17510         0.22834
C         15.79418        40.39411         0.82024
C         14.72165        39.60882         0.17612
C         15.93608        41.82740         0.48831
C         14.81577        42.49565        -0.05272
C         16.09059        44.59022        -0.15751
C         14.89531        43.90685        -0.34142
C         16.19842        46.00946        -0.67855
C         14.87799        46.74184        -0.74839
C         15.98686        48.88882        -0.30240
C         14.86410        48.14872        -0.72950
C         15.99745        50.29139        -0.31094
C         18.22721        10.44672        -0.63569
C         18.22506        11.86278        -0.62935
C         17.01761        12.60223        -0.58593
C         18.26643        14.70619        -0.73995
C         17.01198        14.00709        -0.66136
C         18.27264        16.19794        -0.99588
C         16.99872        16.92189        -0.60721
C         18.24851        19.09266        -0.76363
C         16.98936        18.28939        -0.44908
C         18.21853        20.60125        -0.29822
C         17.06361        20.93483         0.66207
C         18.20053        23.13521         0.98342
C         17.00456        22.45648         0.84297
C         18.24440        24.56271         1.50947
C         17.00147        25.34028         1.10791
C         18.28801        27.43043         0.91057
C         17.04165        26.68333         0.81559
C         18.30888        28.79076         0.88464
C         17.22475        29.54466         0.16556
C         18.29467        31.78069         0.72846
C         16.97649        30.93178         0.81381
C         18.25983        33.18819         1.30126
C         17.10054        33.92736         1.49190
C         18.21893        36.02198         1.35689
C         16.99962        35.32175         1.31867
C         18.20746        37.47117         1.64472
C         16.88157        38.17368         1.50530
C         18.19739        40.42577         1.89033
C         16.90469        39.67927         1.51153
C         18.28236        41.82766         1.28792
C         17.14075        42.51694         0.78938
C         18.35950        44.66630         0.81621
C         17.23039        43.93700         0.45167
C         18.55815        46.05746         0.26177
C         17.27472        46.81043         0.01328
C         18.19433        48.92830         0.94872
C         17.16452        48.15746         0.16286
C         18.25755        50.40351         0.63912
C         17.12472        51.04814         0.11323
C         18.11357        53.25894         0.49289
C         17.09127        52.49558         0.02273
C         18.03874        54.76317         0.61677
C         20.56664         6.07030        -0.74839
C         20.60869         7.58103        -0.77957
C         19.43201         8.29140        -0.72555
C         20.68180        10.42348        -0.77594
C         19.42574         9.72442        -0.69486
C         20.68428        11.83910        -0.84385
C         19.48136        12.56375        -0.71827
C         20.75502        14.71370        -0.60466
C         19.46093        14.00542        -0.71985
C         20.78840        16.18516        -0.51603
C         19.48370        16.86980        -0.36470
C         20.78810        19.11345        -0.32539
C         19.47799        18.34798        -0.26303
C         20.69678        20.27413         0.65086
C         19.49332        21.13512         0.35079
C         20.73596        23.08887         1.14327
C         19.47067        22.41702         0.86263
C         20.72338        24.53130         1.18713
C         19.55282        25.24209         1.19055
C         20.76524        27.44860         1.28505
C         19.57775        26.68462         0.77070
C         20.77396        28.81165         1.41892
C         19.46220        29.55331         1.49293
C         20.71650        31.70717         1.37079
C         19.53543        31.02415         1.17178
C         20.69024        33.16350         1.54231
C         19.48462        33.90034         1.33613
C         20.69227        36.03556         1.62199
C         19.45546        35.32243         1.45911
C         20.68701        37.47669         1.68594
C         19.49519        38.21955         1.68727
C         20.69827        40.38544         1.81423
C         19.49945        39.65228         1.72902
C         20.71924        41.82404         1.73429
C         19.50725        42.51469         1.47298
C         20.77076        44.75093         1.82115
C         19.48175        43.99303         1.49431
C         20.77824        46.21836         1.50993
C         19.62631        46.87927         0.93174
C         20.77516        49.08808         0.99157
C         19.53872        48.24960         0.93525
C         20.59190        50.51698         1.42593
C         19.39821        51.14806         1.08602
C         20.64142        53.38626         0.89889
C         19.31605        52.62360         1.05456
C         20.59365        54.62867         0.02859
C         19.33642        55.45061         0.21335
C         20.56514        57.51100        -0.54901
C         19.34425        56.75991        -0.08389
C         20.41783        57.97970        -2.00160
C         23.09940         3.41975        -1.82095
C         21.87370         4.08828        -1.55033
C         23.09472         6.13724        -1.03011
C         21.86100         5.41304        -1.16240
C         23.09264         7.51439        -0.75192
C         21.87505         8.26743        -0.75114
C         23.18497        10.38424        -0.75435
C         21.90614         9.68352        -0.77529
C         23.22178        11.79395        -0.87141
C         21.95740        12.52062        -1.29958
C         23.30346        14.71594        -1.23897
C         22.02065        13.97481        -0.85985
C         23.28273        16.27382        -0.94518
C         21.97913        16.85761        -0.42371
C         23.18649        18.90581         0.28566
C         22.02273        18.27376        -0.09969
C         23.20471        20.31994         0.62151
C         22.00405        21.02156         0.74010
C         23.24348        23.10794         1.19098
C         21.97268        22.41606         1.03058
C         23.27012        24.49960         1.32291
C         22.02540        25.26087         0.94630
C         23.27930        27.40562         1.63857
C         21.97875        26.66146         1.51249
C         23.25421        28.86208         1.45125
C         22.02018        29.55656         1.48018
C         23.19851        31.61462         0.92250
C         21.99570        30.97247         1.31160
C         23.20386        33.00500         0.35642
C         21.76436        33.88727         2.10212
C         23.20631        35.96107         1.92728
C         21.86863        35.30082         1.90523
C         23.24371        37.43860         1.88800
C         21.95000        38.15497         2.03745
C         23.29482        40.39241         2.15882
C         21.94853        39.66276         2.14251
C         23.22180        41.82216         1.68109
C         21.98179        42.55946         1.79590
C         23.43073        44.52669         2.18715
C         22.02912        43.96561         1.84606
C         23.58077        46.01459         2.24487
C         21.72152        47.04796         2.07698
C         23.18902        48.97508         1.55254
C         21.94299        48.39228         1.65358
C         23.17599        50.46716         1.38480
C         21.85998        51.27108         1.50227
C         23.23342        53.30725         0.88328
C         21.88348        52.64260         1.00721
C         23.13417        54.78876         0.45527
C         21.86160        55.44569         0.11832
C         23.04311        57.33564        -0.94171
C         21.85207        56.71937        -0.41165
C         22.90079        58.46950        -1.86203
C         21.63257        58.79476        -2.39490
C         22.65942        60.51809        -3.76114
C         21.52339        59.82499        -3.33489
C         24.30004         4.07284        -1.67973
C         25.56150         6.13890        -1.22064
C         24.34460         5.44813        -1.28385
C         25.63113         7.50752        -0.84982
C         24.37688         8.18523        -0.33435
C         25.61824        10.35445        -0.54151
C         24.39038         9.67121        -0.56717
C         25.64025        11.76327        -0.59495
C         24.44138        12.48824        -0.73341
C         25.78757        14.69061        -0.91942
C         24.46339        13.99330        -0.50641
C         25.77185        16.09526        -0.34313
C         24.46155        16.70892        -0.05896
C         25.72504        18.84410         0.58120
C         24.44040        18.12994         0.44612
C         25.72589        20.23867         0.81107
C         24.46735        20.98542         0.88372
C         25.74778        23.04251         1.56398
C         24.46817        22.34941         1.16162
C         25.75187        24.53281         1.32826
C         24.50916        25.23636         1.39166
C         25.72939        27.37136         1.31766
C         24.51811        26.64801         1.39265
C         25.72989        28.80180         1.23959
C         24.47168        29.53702         1.19666
C         25.69858        31.62563         0.57022
C         24.42977        30.91966         0.89832
C         25.73068        33.12893         0.59127
C         24.42972        33.87426         0.68013
C         25.67038        36.02678         1.13216
C         24.44713        35.23093         1.36146
C         25.66196        37.36806         1.42753
C         24.43494        38.13170         1.67748
C         25.56914        40.28607         1.11609
C         24.44162        39.58588         1.56356
C         25.57130        41.70207         0.91522
C         24.42172        42.46323         1.27383
C         25.65156        44.63117         1.04633
C         24.51440        43.90304         1.35722
C         25.74134        46.07542         1.21021
C         24.55390        46.79698         1.67631
C         25.62503        48.95097         1.12858
C         24.48847        48.27377         1.53502
C         25.60792        50.46327         0.83496
C         24.20634        50.93801         0.36857
C         25.48552        53.13485        -0.27280
C         24.14255        52.46031        -0.05313
C         25.53783        54.54368        -0.44922
C         24.39526        55.42537        -0.11904
C         25.46630        57.26232        -1.43187
C         24.27183        56.68970        -0.85905
C         25.42275        58.71562        -1.85269
C         24.05376        59.12669        -2.34540
C         23.92099        60.16057        -3.27952
C         26.83120         8.19479        -0.79849
C         28.07169        10.25477        -0.26479
C         26.88692         9.60554        -0.50318
C         28.06403        11.71761         0.09311
C         26.98489        12.44693        -0.72706
C         28.16379        14.57115        -0.19514
C         26.99531        13.91679        -0.40964
C         28.21527        16.06364        -0.47058
C         26.93220        16.75132        -0.05450
C         28.18808        18.81691         0.49311
C         26.94743        18.13890         0.38170
C         28.20805        20.21738         0.76841
C         26.97183        20.92527         0.91798
C         28.20143        23.03963         1.02725
C         27.00307        22.34683         1.09265
C         28.21580        24.52891         0.81341
C         26.94641        25.23047         1.22133
C         28.18170        27.37916         1.39095
C         26.95931        26.65816         1.26464
C         28.18396        28.77618         1.39031
C         26.95726        29.47667         1.22011
C         28.22828        31.67972         1.13312
C         26.98657        30.91234         0.87631
C         28.18055        33.13235         1.09441
C         26.98814        33.81428         0.95060
C         28.14566        35.94598         1.49659
C         26.97826        35.31962         0.73416
C         28.19979        37.39976         1.16759
C         26.93659        38.11634         1.40316
C         28.08044        40.19528         0.51684
C         26.87260        39.58225         1.12232
C         28.05341        41.66129         0.21520
C         26.75781        42.41150         0.38212
C         28.12828        44.64446         0.51048
C         26.82491        43.93644         0.47508
C         28.16045        46.00350         0.74866
C         26.93746        46.75071         1.01734
C         28.05348        48.89429         0.33308
C         26.99236        48.26716         1.22261
C         28.05648        50.38949         0.14768
C         26.65710        50.86969        -0.24591
C         27.81570        52.99433        -0.99628
C         26.63986        52.37210        -0.48212
C         27.80025        54.36044        -1.32636
C         26.67082        55.14873        -1.05327
C         26.63114        56.54127        -1.45180
C         29.38187        12.43396        -0.01695
C         30.63808        14.55061         0.01754
C         29.42001        13.82595        -0.04259
C         30.67677        15.97414         0.08902
C         29.45729        16.72671         0.04656
C         30.67893        18.78957         0.53100
C         29.44329        18.09756         0.35318
C         30.69521        20.19908         0.77901
C         29.44623        20.91673         0.88203
C         30.67736        23.06400         1.11297
C         29.46085        22.34469         0.99034
C         30.69263        24.49806         1.27054
C         29.47393        25.19316         1.30426
C         30.76854        27.38772         1.56126
C         29.42753        26.61011         1.61158
C         30.71565        28.82911         1.31098
C         29.44846        29.55193         1.72057
C         30.67545        31.69315         1.11587
C         29.41606        31.00024         1.28831
C         30.69411        33.11106         1.08694
C         29.45191        33.85747         1.20954
C         30.70257        36.00896         1.27500
C         29.45074        35.23001         1.26450
C         30.67569        37.43834         0.92792
C         29.38949        38.08259         0.92571
C         30.55302        40.21518         0.67128
C         29.36553        39.49550         0.72132
C         30.39850        41.64496         0.83629
C         29.31280        42.39318         0.46245
C         30.67896        44.59188         0.44977
C         29.36346        43.86532         0.05990
C         30.58607        46.02343         0.00400
C         29.44313        46.74654         0.55538
C         30.39838        48.81728        -0.63491
C         29.34451        48.24751         0.24206
C         30.24000        50.12419        -1.12617
C         29.10623        50.90351        -0.81985
C         28.98374        52.20537        -1.27577
C         31.89527        16.66482         0.26047
C         33.13447        18.79265         0.45959
C         31.91862        18.07229         0.41997
C         33.15146        20.19412         0.64328
C         31.91779        20.88643         0.87150
C         33.17319        23.07364         0.89160
C         31.95883        22.31266         1.35725
C         33.18001        24.48525         0.93117
C         31.95161        25.22288         1.23774
C         33.15050        27.38755         0.90498
C         31.97102        26.62340         1.21922
C         33.10400        28.76192         0.76378
C         31.86291        29.49874         0.93224
C         33.00243        31.65704         0.38588
C         31.85810        30.96190         0.83799
C         33.02384        33.06036         0.36946
C         31.91008        33.78771         0.83813
C         33.12842        36.00715         0.47386
C         31.99966        35.25094         1.03233
C         33.07592        37.38325         0.31541
C         31.85224        38.13875         0.58815
C         33.00728        40.27185        -0.04361
C         31.84079        39.57847         0.46790
C         33.11157        41.69812        -0.23445
C         32.24201        42.64643         0.38517
C         32.86303        44.55579        -0.96197
C         31.94559        43.91868        -0.07186
C         32.70501        45.88891        -1.26762
C         31.59562        46.65366        -0.73491
C         31.48707        48.03649        -1.04472
C         34.35752        20.93163         0.53530
C         35.52580        23.07432         0.20697
C         34.36096        22.35551         0.55600
C         35.54310        24.48722         0.22983
C         34.36955        25.19124         0.64535
C         35.53983        27.35845         0.09448
C         34.47865        26.67041         0.91598
C         35.51827        28.75459        -0.01394
C         34.39151        29.55462         0.62316
C         35.43333        31.67556        -0.26605
C         34.16402        30.86040        -0.15851
C         35.42129        33.03537        -0.41756
C         34.13007        33.81922        -0.32801
C         35.42849        35.93787        -0.55005
C         34.39518        35.21003         0.27337
C         35.32821        37.33026        -0.76305
C         34.19031        38.08375        -0.30765
C         35.16568        40.10906        -1.30345
C         34.11269        39.47530        -0.53997
C         35.08384        41.49912        -1.63290
C         34.08729        42.28680        -1.10560
C         34.11300        43.79021        -1.36403
C         36.69412        25.20441        -0.20280
C         37.78347        27.30753        -0.90846
C         36.68725        26.61821        -0.34691
C         37.77677        28.72436        -1.04157
C         36.61737        29.43787        -0.56202
C         37.83914        31.63287        -1.08877
C         36.67419        30.90948        -0.45959
C         37.71396        33.07887        -1.33158
C         36.59091        33.77029        -0.87666
C         37.60340        35.87282        -1.71751
C         36.52521        35.20125        -1.04326
C         37.51048        37.25805        -1.92517
C         36.38575        37.98963        -1.48534
C         36.26500        39.37291        -1.75313
C         38.86352        29.41335        -1.61391
C         40.00346        31.61474        -2.29637
C         38.72896        30.84894        -2.02786
C         39.99157        32.96522        -2.32524
C         38.81201        33.75308        -1.96162
C         38.74422        35.12425        -2.15133
O         13.51901        27.55417        -1.57389
O         23.46846        52.35835        -1.38138
O         27.95748        40.67520        -0.87599
O         24.23207        16.96536         1.34530
O         13.38272        37.89495        -1.82994
O         12.32018        34.03562        -2.92154
O         13.07111        31.23055        -2.41113
O         24.02083        55.58902         1.29683
O         23.44710        16.95701        -2.16300
O         15.78518        40.18134         2.32162
O         29.82082        47.73576         1.58761
O         22.56244        26.87372         2.82399
O         21.80855        38.83883         3.35165
O         30.14422        26.98898         2.83800
O         11.73054        25.01749        -1.35351
O         22.59702        46.58110         3.06496
O         14.21627        26.41062         1.95122
O         15.34058        30.09380        -1.87517
O         25.99927        14.68126        -2.30951
O         27.12213        39.10765         2.49342
O         31.60927        35.68019         2.38681
O         31.49579        42.22014         1.48167
O         26.49341        31.08185        -0.52573
O         15.93823        33.24785         1.87226
O         19.78898        44.46699         2.87789
O         17.31310        37.68064         2.82317
O         19.25547        17.54278         0.92493
O         19.87805        53.38981         2.16406
O         22.84817        51.08703         2.62956
O         22.41391        33.38225        -0.48713
O         25.16232        33.83701        -0.59310
O         26.51848        43.25486        -0.80762
O         21.60979        14.12525         0.52022
O         37.86872        31.30864         0.32403
O         24.16774        35.28299         2.81842
O         34.96123        26.80505         2.31321
H         35.74441        26.22095         2.40916
O         17.79204        29.67444        -1.17062
H         17.03726        29.78905        -1.80723
O         22.69110        33.20803         2.82418
H         23.34667        33.85005         3.20547
O         11.74069        27.09487         1.66436
H         12.53069        26.81013         2.18853
O         23.67048        44.07027         3.55979
H         23.02302        44.53519         4.13366
O         18.52000        32.09614        -0.67566
H         18.53963        31.23881        -1.17546
O         33.81733        30.43629        -1.51289
H         33.77094        31.22957        -2.08620
O         37.98206        30.83144        -3.30426
H         38.53108        30.35558        -3.96272
O         16.94448        55.29698        -0.12404
H         17.14682        55.21228        -1.07818
O         19.14492        45.81447        -1.07633
H         18.38496        45.60805        -1.68332
O         29.30587        43.83992        -1.38804
H         28.41903        43.48521        -1.63808
O         19.72265        26.62867        -0.69768
H         20.62714        26.26838        -0.89228
O         20.91915        19.69847        -1.64761
H         21.34301        19.03500        -2.23464
O         28.28922        16.18189        -1.92869
H         27.48756        15.69828        -2.28950
O         26.43134        59.00450        -2.82298
H         26.20287        58.53688        -3.65189
O         27.63573        11.84341         1.48670
H         28.24348        11.31202         2.04171
O         17.35858        20.36330         1.97023
H         18.31917        20.13721         2.02815
O         15.59503        24.42015         2.81133
H         15.24490        25.27603         3.15353
O         20.40850        19.73377         1.98187
H         20.70529        20.38838         2.64893
O         21.20411        49.21900        -0.44957
H         20.99378        48.36695        -0.89330
O         27.83152        35.81520         2.91014
H         28.52436        36.27953         3.42548
O         23.31338        53.69278        -1.95094
H         23.70215        53.57924        -2.85298
O         18.34706        19.08117        -2.21362
H         17.82191        19.85130        -2.53815
O         33.65808        34.06301        -1.68602
H         33.40149        33.20609        -2.08559
O         18.24742        24.44262         2.96778
H         17.32022        24.20922         3.23397
O         16.63536        45.85687        -2.09312
H         16.49183        46.72229        -2.53369
O         18.11581        40.66489         3.32372
H         17.15916        40.75980         3.54108
O         21.90755        12.46427        -2.75007
H         22.58912        13.10458        -3.08354
O         34.94465        34.97062         1.59766
H         35.00269        35.82680         2.07029
O         25.86286        51.15613         2.05562
H         26.77350        50.92640         2.35774
O         19.46477         5.57304        -1.51571
H         19.59018         5.85111        -2.44593
O         17.73330        48.85138         2.34671
H         18.33766        49.39983         2.89107
O         17.99037        21.41651        -1.47816
H         18.86096        21.57553        -1.90197
O         23.90780        53.27193         2.14703
H         23.42719        53.84008         2.78293
O         24.42014         8.00425         1.13119
H         24.46714         7.03973         1.30303
O         28.24608        24.69370        -0.66170
H         28.98261        24.14225        -1.00297
O         34.44140        44.04738        -2.73318
H         33.70101        43.73200        -3.29067
O         27.22122        35.56123        -0.66947
H         26.54726        35.04091        -1.16932
O         32.09047        22.22336         2.83694
H         31.29197        21.76371         3.17412
O         19.14819        29.56844         2.94191
H         19.13948        28.63863         3.25610
O         27.43065        48.50037         2.60609
H         28.35468        48.14576         2.66169
O         20.69521        58.70958         0.25186
H         20.90315        58.44312         1.17117
O         30.68807        44.62469         1.89763
H         31.40603        45.22299         2.19078
O         29.48473        29.62203         3.18561
H         29.67445        28.70429         3.50367
O         34.81254        29.90580         1.95990
H         34.93585        29.06691         2.45902
O         28.42312        50.95245         1.44792
H         29.23949        50.49996         1.75011
O         14.42948        20.67302         2.15910
H         15.35454        20.66913         2.49853
O         25.79951        22.91605         3.03563
H         25.69690        21.96511         3.25382
O         22.16036        25.45550        -0.51598
H         22.24459        24.56777        -0.92636
O         27.32916        12.37945        -2.12885
H         26.84086        13.14657        -2.55484
O         16.63687        30.66100         2.18109
H         16.43608        31.52347         2.61381
O         20.30360        56.83564        -2.86478
H         20.32489        56.00869        -2.32899
O         11.32428        36.41570        -2.87159
H         11.69194        35.56804        -3.26703
O         10.89174        37.14553         0.68031
H         10.67202        37.96899         1.16392
O         23.68202        40.53568         3.56405
H         23.23336        39.80473         4.05462
O         20.54177        54.15439        -1.36484
H         21.45394        53.86969        -1.62854
O         24.34553        14.18701         0.91087
H         23.40295        14.07994         1.17902
O         23.52520        14.55996        -2.63543
H         23.68294        15.50255        -2.96491
O         18.42616        16.32947        -2.44005
H         18.38217        17.29586        -2.65376
O         23.86512        50.14313        -0.79626
H         22.89127        49.94457        -0.79818
O         14.99152        35.91266         2.52164
H         15.59065        36.41882         3.11791
O         14.64753        33.56219        -2.27700
H         14.01439        33.74005        -3.03495
O         26.39488        50.19162        -1.49100
H         25.42484        50.22306        -1.67044
H          5.15821        31.43509        -1.03902
H          5.23428        33.90378        -1.21780
H          7.46933        27.12693        -0.65852
H          6.33250        29.27338        -0.87976
H          6.52870        35.99135        -1.37437
H          7.77907        38.07297        -1.58577
H          9.89077        22.60460        -0.05992
H          8.59182        24.95676        -0.15073
H          9.08247        40.23992        -1.50786
H         10.33306        42.35654        -1.27839
H         12.33395        18.43219        -0.38104
H         11.14552        20.55698        -0.27719
H         11.59043        44.43076        -1.24592
H         12.76016        46.53866        -1.11351
H         14.84467        14.19898        -0.55481
H         13.59275        16.28893        -0.45253
H         13.92646        48.67783        -0.95751
H         15.11680        50.82774        -0.69387
H         17.26918         9.90627        -0.60691
H         16.06196        12.06213        -0.50426
H         16.18463        52.98171        -0.36764
H         17.84108        54.99512         1.70036
H         20.36522         5.76085         0.31850
H         18.47387         7.75114        -0.70942
H         18.41169        57.33926         0.00811
H         19.49221        58.61064        -2.10693
H         23.07754         2.36539        -2.13024
H         20.92320         3.54362        -1.63996
H         22.56337        61.33112        -4.49426
H         20.53602        60.08249        -3.74454
H         25.24662         3.54911        -1.87650
H         26.48585         5.62346        -1.52393
H         25.67227        59.33477        -0.94407
H         24.82156        60.67823        -3.63926
H         27.77367         7.65908        -0.99398
H         29.02072         9.69459        -0.26819
H         28.68348        54.81612        -1.79715
H         27.54520        56.99868        -1.85798
H         30.32424        11.86142        -0.01489
H         31.58289        13.99546         0.12397
H         31.00261        50.53398        -1.80596
H         29.80002        52.66027        -1.85774
H         32.84339        16.10775         0.24527
H         34.08402        18.25581         0.31643
H         33.44625        46.40157        -1.89669
H         32.24957        48.49549        -1.69113
H         35.29586        20.39799         0.32429
H         36.43018        22.52778        -0.09785
H         35.85302        41.94370        -2.28050
H         34.96546        44.21111        -0.75789
H         37.58206        24.63927        -0.52159
H         38.66043        26.73818        -1.24903
H         38.32192        37.78608        -2.44776
H         37.05105        39.87987        -2.33207
H         39.73153        28.83583        -1.96931
H         40.91452        31.05937        -2.56861
H         40.90110        33.51712        -2.60911
H         39.57857        35.65740        -2.63133
