         324
 CSIRO Nanostructure Databank - Neutral Graphene Oxide Data Set
C          1.38142         2.05322         1.90869
C          1.33212         3.43198         1.81646
C          2.56391         1.32575         1.70418
C          2.61140         4.21880         1.72412
C          1.27500         6.35595         1.19766
C          1.19628         7.69464         0.92586
C          2.52617         5.66648         1.27842
C          2.38404         8.53459         1.01135
C          1.18414        10.68420         0.53589
C          1.18301        12.07151         0.36870
C          2.37922         9.96083         0.61498
C          2.38627        12.78932         0.30721
C          1.22555        14.99649        -0.08206
C          1.25074        16.37434        -0.15807
C          2.40530        14.25493         0.20858
C          2.45638        17.09606         0.03646
C          2.49434        18.52087        -0.05930
C          3.70101         1.94820         1.04484
C          3.67378         3.49363         0.92825
C          5.01395         1.33255         0.96811
C          4.94709         4.20349         0.67862
C          3.71555         6.32603         0.96613
C          3.74606         7.78901         0.98463
C          4.94299         5.62007         0.65374
C          4.93627         8.50469         0.49387
C          3.62204        10.63606         0.45643
C          3.61049        12.05742         0.33495
C          4.87543         9.92473         0.37402
C          4.85952        12.75708         0.32451
C          3.60392        14.95407         0.42210
C          3.65653        16.37910         0.32565
C          4.83978        14.18508         0.67909
C          4.87536        17.10439         0.50617
C          3.67555        19.20362         0.08020
C          4.90396        18.51090         0.33691
C          6.14606         2.03465         0.57144
C          6.09973         3.47965         0.33166
C          7.42244         1.40514         0.61473
C          7.26622         4.18354        -0.07353
C          6.11889         6.32698         0.26743
C          6.10560         7.77902         0.18955
C          7.27779         5.58309        -0.11380
C          7.28467         8.49151        -0.26012
C          6.07700        10.64136         0.05931
C          6.07072        12.09438         0.14140
C          7.24209         9.92964        -0.26516
C          7.29811        12.86365         0.02888
C          6.15267        14.90618         0.82586
C          6.11915        16.40664         0.86876
C          7.37880        14.21255         0.36887
C          7.43149        17.15759         0.74871
C          6.13842        19.22633         0.30508
C          7.38091        18.58780         0.37418
C          8.58000         2.05868         0.16686
C          8.37173         3.32360        -0.65287
C          9.83490         1.47334         0.32529
C          9.67255         4.05629        -0.97805
C          8.58504         6.31382        -0.34696
C          8.42557         7.77365        -0.68115
C          9.63567         5.55002        -1.16900
C          9.64420         8.49851        -1.11677
C          8.40581        10.68315        -0.86564
C          8.48715        12.17498        -0.50351
C          9.70342         9.91718        -0.62140
C          9.80964        12.88163        -0.28015
C          8.64063        14.95197         0.35897
C          8.67120        16.39802         0.51059
C          9.83940        14.26766         0.21058
C          9.85702        17.11515         0.28645
C          8.60072        19.25733         0.14956
C          9.83276        18.56653         0.15231
C         11.05445         2.06397        -0.12898
C         11.01515         3.39984        -0.79432
C         12.25468         1.42308         0.01716
C         12.24564         4.23081        -0.80546
C         10.94427         6.25630        -1.45254
C         10.92757         7.76970        -1.41937
C         12.24784         5.55997        -1.18579
C         12.24901         8.50097        -1.34957
C         11.01092        10.60112        -0.45035
C         11.05698        12.07660        -0.16539
C         12.27381         9.94563        -0.92290
C         12.35759        12.80750        -0.17394
C         11.16540        14.95985         0.47720
C         11.11004        16.43477         0.16761
C         12.36809        14.28640        -0.16176
C         12.29024        17.13621        -0.07874
C         11.04537        19.26161        -0.03153
C         12.27746        18.58403        -0.14972
C         13.49708         2.05437        -0.53696
C         13.48650         3.56522        -0.24994
C         14.75650         1.40975        -0.02345
C         14.77728         4.21202        -0.69154
C         13.49904         6.31957        -1.17082
C         13.52152         7.74494        -1.24528
C         14.76775         5.62502        -1.03370
C         14.72532         8.48369        -1.18980
C         13.57070        10.59013        -0.64094
C         13.54805        12.07116        -0.67605
C         14.74810         9.90655        -0.96294
C         14.80043        12.83303        -0.86903
C         13.53356        14.98632        -0.39252
C         13.53504        16.44266        -0.32449
C         14.79045        14.30835        -0.69957
C         14.69162        17.15781        -0.60679
C         13.49456        19.28196        -0.30578
C         14.71571        18.60044        -0.50398
C         15.94830         2.10483        -0.06273
C         15.94179         3.49343        -0.54156
C         17.18359         1.48506         0.29852
C         17.24647         4.10766        -0.82492
C         15.97618         6.31976        -1.15089
C         16.00988         7.78001        -1.54281
C         17.25910         5.62295        -1.14244
C         17.27768         8.51398        -1.14774
C         16.01668        10.61936        -0.97134
C         16.08856        12.09241        -0.61727
C         17.22123         9.94013        -1.04963
C         17.28469        12.82331        -1.19499
C         15.92836        14.99265        -1.02921
C         15.89598        16.46499        -1.10345
C         17.16201        14.27964        -1.45957
C         17.21665        17.23586        -1.17479
C         15.95607        19.28270        -0.49663
C         17.19515        18.61961        -0.64982
C         18.40452         2.19311         0.29886
C         18.42809         3.51662        -0.20829
C         19.64619         1.54664         0.66161
C         19.60338         4.35036         0.00793
C         18.50802         6.38658        -0.89784
C         18.49480         7.82730        -1.00263
C         19.66626         5.73376        -0.51341
C         19.75534         8.52018        -0.88729
C         18.47310        10.72184        -0.84599
C         18.49282        12.16978        -1.19361
C         19.76679         9.99080        -0.79852
C         19.76891        12.83880        -1.36158
C         18.45692        15.06331        -1.61413
C         18.49605        16.49053        -1.20815
C         19.75428        14.29527        -1.64541
C         19.67907        17.13712        -0.88128
C         18.40709        19.21577        -0.30519
C         19.64711        18.51939        -0.40592
C         20.86170         2.21301         0.66446
C         20.84949         3.68885         0.53915
C         22.11978         1.54476         0.81243
C         22.14282         4.43175         0.40902
C         20.94076         6.41658        -0.51772
C         20.96148         7.83331        -0.79922
C         22.12922         5.75066        -0.24254
C         22.23531         8.54307        -0.84160
C         21.03301        10.71921        -1.01244
C         20.98868        12.16913        -1.16390
C         22.20780         9.98907        -0.99216
C         22.23236        12.92478        -1.09678
C         21.03806        15.07637        -1.47010
C         20.98189        16.50315        -1.03646
C         22.25738        14.30155        -1.16586
C         22.14544        17.19070        -0.75321
C         20.82339        19.14217        -0.00487
C         22.10563        18.51938        -0.14656
C         23.34937         2.19826         0.74950
C         23.42405         3.66997         0.56201
C         24.58357         1.51507         0.88418
C         24.70467         4.28092         0.15372
C         23.41152         6.38200        -0.60008
C         23.43495         7.84339        -0.75898
C         24.72544         5.64150        -0.42033
C         24.75573         8.46667        -1.04385
C         23.49562        10.69554        -0.84195
C         23.49720        12.19433        -0.82941
C         24.75950         9.96892        -1.17750
C         24.79654        12.87668        -0.90174
C         23.52501        15.06615        -1.18733
C         23.47478        16.55883        -0.95334
C         24.83716        14.33511        -1.02273
C         24.71448        17.26960        -0.46588
C         23.23878        19.16004         0.31905
C         24.64388        18.74302        -0.02941
C         25.81209         2.18037         0.77835
C         25.87942         3.58156         0.37853
C         27.02974         1.48851         1.00099
C         27.16005         4.22603         0.22402
C         25.99240         6.41830        -0.35763
C         26.03295         7.75432        -0.70869
C         27.21869         5.69681         0.04631
C         27.30884         8.46353        -0.73792
C         26.05269        10.72640        -1.07605
C         25.99559        12.17802        -0.73147
C         27.32685         9.94701        -0.90988
C         27.17464        12.87402        -0.38448
C         25.99455        15.02255        -0.42800
C         25.78830        16.38240         0.10584
C         27.11611        14.27776        -0.04561
C         26.84944        16.96705         0.99787
C         25.68781        19.16309         0.97246
C         26.81160        18.42470         1.28240
C         28.25928         2.10665         0.81235
C         28.33673         3.50023         0.41778
C         29.46807         1.35062         0.99934
C         29.62537         4.08307         0.10363
C         28.58433         6.36785        -0.22222
C         28.53802         7.80958        -0.64815
C         29.74214         5.42548        -0.37938
C         29.76457         8.61072        -0.60755
C         28.51043        10.69410        -0.43460
C         28.45474        12.15146        -0.35034
C         29.71167        10.02203        -0.25864
C         29.64491        12.82511         0.36441
C         28.19186        14.90178         0.71077
C         28.10594        16.20624         1.18824
C         29.34769        14.07273         1.11655
C         29.20342        16.84998         1.87379
C         27.92650        18.98776         1.95335
C         29.09545        18.24122         2.22922
C         30.67157         1.88964         0.66785
C         30.76753         3.22722         0.14081
C         32.00083         3.65460        -0.38508
C         30.97765         5.76032        -0.97206
C         31.03344         8.11338        -0.88231
C         32.08579         4.89612        -0.99060
C         32.22413         8.80501        -0.53488
C         30.90722        10.70599         0.20863
C         30.81026        12.01718         0.73260
C         32.15592        10.02122         0.10564
C         31.88066        12.69529         1.41162
C         30.49303        14.69691         1.90049
C         30.40582        16.15289         2.17796
C         31.78006        13.97849         1.86754
C         31.47695        16.83381         2.77259
C         30.20093        18.88604         2.85014
C         31.37193        18.19405         3.10548
O         10.01862         5.85456        -2.52350
O         24.43057        17.19084        -1.88450
O         16.38686        17.03770        -2.36063
O         23.50746        11.39244         0.45092
O         14.00113        12.48145        -2.03886
O         11.79539        12.28336         1.09171
O         25.66183        16.30653         1.58577
O         19.08717        10.45724         0.46954
O         31.19423         6.95600        -1.64636
O         20.53884        14.73562        -2.80648
O         24.69902         9.14441        -2.36221
O         22.86163         4.44846         1.70426
O         27.99817         6.31234         1.12693
O         12.26354         9.56583        -2.35053
O          3.25066         2.70355        -0.17038
O         10.08525         8.31048        -2.48996
O         29.49299        12.90426        -1.08120
O         10.33160         3.38716        -2.09863
O         24.34082        14.75672        -2.36932
O          9.17235        12.85908        -1.61644
O         29.43578        13.90245         2.56480
O         17.63316        14.72426        -2.77241
O         17.42950         4.60445        -2.19076
O          6.79783        16.91873         2.06042
O          5.48077        14.35900         2.00685
O         26.90506        10.46224        -2.23667
O          3.18160         8.33299         2.22195
O         24.07350         5.68006        -1.75016
O         10.32028         9.95692         0.69764
O         19.95110         4.34919         1.47718
O         24.96741        19.56200        -1.20368
H         24.66221        19.04703        -1.99004
O         16.06848         7.76549        -3.02068
H         15.22097         7.39456        -3.34904
O         13.41309         3.70145         1.20242
H         13.46488         4.65525         1.42186
O         11.39733        14.86624         1.92675
H         11.50741        13.90518         2.12712
O         16.25810        12.15609         0.83912
H         17.06280        11.64222         1.07427
O          7.82368         2.87456        -1.92465
H          8.59341         2.70053        -2.51586
O          3.14640         4.28394         3.09451
H          2.59012         4.91051         3.60425
O          8.16717        10.61503        -2.29294
H          8.68975        11.33367        -2.71730
O          9.24453         6.31795         0.99033
H          8.66140         6.80827         1.61013
O         13.49137         1.90340        -1.98714
H         13.36867         0.95510        -2.19867
H          0.47451         1.50790         2.21165
H          0.39775         3.94831         2.07821
H          2.62523         0.26974         2.00244
H          0.34845         5.76510         1.21841
H          0.23170         8.13963         0.64503
H          0.22215        10.16566         0.64908
H          0.21884        12.59623         0.34614
H          0.27822        14.47042        -0.26097
H          0.32853        16.92849        -0.38514
H          1.55991        19.06313        -0.26408
H          5.12556         0.30219         1.33824
H          3.69920        20.29822        -0.02142
H          7.50042         0.39056         1.03539
H          6.10744        20.30967         0.11384
H          9.89952         0.50053         0.83813
H          8.59283        20.33918        -0.05144
H         12.30224         0.43509         0.50105
H         11.02737        20.35967        -0.09938
H         14.74747         0.34447         0.25574
H         13.49081        20.38173        -0.27800
H         17.16974         0.43423         0.62282
H         15.96318        20.35523        -0.25040
H         19.62436         0.46295         0.85108
H         18.41344        20.24663         0.07896
H         22.11106         0.45487         0.96535
H         20.77923        20.16388         0.40003
H         24.57710         0.43452         1.09064
H         23.11967        20.15518         0.77505
H         26.99576         0.43460         1.31376
H         25.66679        20.22686         1.25653
H         29.39266         0.31772         1.36758
H         27.90214        20.05431         2.22195
H         31.59563         1.30061         0.75821
H         32.86917         2.98210        -0.35615
H         33.01564         5.23800        -1.46224
H         33.19211         8.33187        -0.74524
H         33.08148        10.51845         0.42464
H         32.84541        12.17795         1.51511
H         32.67365        14.46750         2.27976
H         32.40505        16.29829         3.01317
H         30.11305        19.94784         3.12083
H         32.22045        18.70128         3.58468
