         732
 CSIRO Nanostructure Databank - Neutral Graphene Oxide Data Set
C         22.91815        24.57859         0.29809
C         21.81461        25.28839         0.66028
C         22.94591        27.42665         0.25622
C         21.78751        26.71204         0.56419
C         22.94447        28.91719         0.32414
C         21.68833        29.70567         0.17472
C         22.87831        31.46188        -1.15219
C         21.67556        30.90956        -0.41453
C         22.85309        32.95796        -1.38259
C         21.66876        33.52982        -1.83292
C         22.78803        35.65218        -2.09825
C         21.64000        34.87379        -2.22176
C         22.78669        37.91164        -1.59049
C         21.66877        38.68225        -1.34833
C         22.94524        40.22218         0.03813
C         21.75000        39.82776        -0.50583
C         23.06533        41.46733         0.79211
C         21.93832        42.06350         1.38643
C         23.26303        43.97576         2.09731
C         22.03829        43.29099         2.03211
C         23.27257        45.40080         2.55569
C         22.26916        45.91432         3.49814
C         23.57930        47.95966         3.86347
C         22.41614        47.14238         4.06794
C         25.43958        23.13283        -0.21257
C         25.40123        24.53004        -0.24562
C         24.07715        25.25671        -0.38248
C         25.38790        27.41285        -0.24457
C         24.14928        26.73399        -0.06250
C         25.43911        28.84000        -0.25686
C         24.21486        29.62115        -0.00299
C         25.33642        31.70135        -0.72541
C         24.17586        30.99539        -0.55151
C         25.31055        33.09130        -1.11314
C         24.05610        33.73621        -1.33798
C         25.23509        35.94924        -1.50817
C         24.01866        35.14597        -1.60744
C         25.21743        37.39665        -1.30137
C         24.08406        38.18447        -1.05702
C         25.41157        40.24962        -0.29029
C         24.18924        39.38006        -0.10830
C         25.49906        41.48411         0.29034
C         24.32889        42.11110         0.90928
C         25.73525        44.06776         1.63185
C         24.41695        43.37641         1.53796
C         25.80556        45.49068         2.11608
C         24.54075        46.21227         2.44235
C         25.89111        48.27212         2.93062
C         24.66244        47.50501         3.15009
C         25.97864        49.61464         3.32130
C         27.87977        23.11935        -0.23225
C         26.65001        22.43974        -0.19292
C         27.86699        24.54295        -0.29222
C         26.62323        25.24712        -0.29557
C         27.84162        27.39331        -0.49457
C         26.61725        26.68653        -0.36957
C         27.83993        28.81535        -0.60886
C         26.62474        29.53204        -0.48236
C         27.74036        31.58989        -1.37170
C         26.66979        31.05061        -0.41721
C         27.74900        33.10730        -1.37504
C         26.53170        33.82207        -1.31280
C         27.74047        36.00038        -1.70189
C         26.46811        35.26219        -1.47425
C         27.80781        37.45544        -1.41272
C         26.51115        38.15284        -1.35819
C         27.89484        40.24216        -0.83322
C         26.57310        39.60776        -0.95203
C         27.85698        41.69869        -0.58606
C         26.87081        42.11092         0.49143
C         27.98817        44.36179         0.61966
C         26.86661        43.57847         0.82515
C         28.04278        45.75648         1.07989
C         26.97972        46.32057         1.78983
C         28.14871        48.49142         1.96502
C         26.99714        47.69420         2.22155
C         28.15813        49.87733         2.27829
C         27.07248        50.41635         2.96479
C         30.43236        20.33156        -0.16268
C         29.21186        21.00445        -0.20778
C         30.37597        23.14014        -0.24648
C         29.15081        22.40715        -0.22544
C         30.35555        24.56724        -0.31954
C         29.10509        25.26802        -0.36091
C         30.32148        27.40480        -0.51981
C         29.09036        26.67988        -0.47284
C         30.30694        28.82704        -0.66254
C         29.07577        29.53744        -0.76933
C         30.29420        31.61045        -1.17185
C         29.07233        30.92493        -1.05426
C         30.30344        33.00522        -1.67445
C         28.98993        33.75358        -1.79847
C         30.31156        35.93556        -1.61132
C         29.03122        35.24998        -1.87312
C         30.28987        37.36128        -1.11016
C         29.00509        38.12714        -1.33944
C         30.32042        40.31582        -1.21552
C         29.05516        39.57666        -1.15251
C         30.34355        41.73936        -1.13564
C         29.07675        42.51782        -0.86057
C         29.99552        44.82416        -0.61861
C         29.07638        43.88788        -0.22975
C         30.29639        46.04256         0.09279
C         29.21217        46.56530         0.85030
C         30.53718        48.58645         1.22618
C         29.30651        47.88836         1.34410
C         30.62082        49.95659         1.87539
C         29.29326        50.70116         1.68493
C         30.55665        52.81044         2.05303
C         29.39985        52.12642         2.16644
C         32.95170        18.93498         0.31607
C         32.92564        20.31932         0.01918
C         31.65142        21.02269        -0.14715
C         32.85106        23.18491        -0.28534
C         31.62915        22.44916        -0.22898
C         32.83640        24.58503        -0.31961
C         31.58106        25.28863        -0.34954
C         32.79548        27.44560        -0.43858
C         31.56185        26.70992        -0.44572
C         32.76160        28.84468        -0.51741
C         31.53357        29.54699        -0.68394
C         32.77451        31.66586        -1.09925
C         31.51794        30.95592        -0.92238
C         32.76340        33.09140        -1.41857
C         31.55558        33.77974        -1.58204
C         32.76567        35.94775        -1.45538
C         31.51373        35.22351        -1.57229
C         32.73743        37.39790        -1.49184
C         31.55079        38.12337        -1.44075
C         32.77724        40.26831        -1.35004
C         31.53912        39.57483        -1.39770
C         32.81183        41.63231        -1.04456
C         31.61776        42.38008        -1.07863
C         32.85589        44.51746        -0.60547
C         31.81159        43.81517        -1.12505
C         32.81422        46.05297        -0.57377
C         31.55949        46.66878         0.07719
C         32.94380        48.69669         0.63021
C         31.67081        47.96249         0.66799
C         32.95681        50.09699         0.98455
C         31.82313        50.76940         1.44151
C         32.91370        52.98486         1.24047
C         31.79690        52.19397         1.59280
C         32.89488        54.40398         1.08208
C         35.38370        18.94772         0.40165
C         34.14835        18.26413         0.47300
C         35.37737        20.35108         0.17217
C         34.14454        21.01730        -0.05527
C         35.37731        23.21916        -0.15909
C         34.14272        22.44273        -0.54510
C         35.33947        24.62425        -0.20025
C         34.08024        25.33589        -0.31660
C         35.29451        27.49929        -0.32111
C         34.05514        26.73474        -0.34966
C         35.27492        28.88220        -0.37754
C         33.99114        29.65404        -0.24077
C         35.22545        31.64722        -1.33331
C         33.96753        31.00814        -0.90825
C         35.25526        33.11344        -1.47963
C         34.00458        33.81082        -1.45460
C         35.27372        35.92259        -1.29802
C         33.97608        35.23263        -1.45957
C         35.29616        37.41394        -1.33970
C         34.02465        38.09866        -1.67948
C         35.34301        40.26819        -1.28042
C         34.06007        39.59993        -1.59557
C         35.36025        41.60059        -0.83540
C         34.06094        42.26478        -0.56183
C         35.35429        44.43197        -0.04777
C         34.03874        43.72935        -0.17968
C         35.35802        45.91889        -0.37718
C         34.06596        46.54256         0.18867
C         35.39487        48.73370         0.19959
C         34.12435        48.04597         0.29827
C         35.41949        50.14293         0.36539
C         34.23715        50.80130         0.94005
C         35.34629        53.08813         0.50262
C         34.21590        52.33413         1.06013
C         35.29006        54.47780         0.46824
C         34.03197        55.11427         0.77272
C         37.88964        16.17188         0.85664
C         36.69104        16.83632         0.67125
C         37.85904        18.97704         0.62451
C         36.64130        18.24475         0.56474
C         37.84620        20.41619         0.44498
C         36.62641        21.08828         0.19553
C         37.82262        23.25290         0.14592
C         36.59988        22.51866         0.04993
C         37.80539        24.67324         0.03800
C         36.56407        25.37515        -0.11109
C         37.79315        27.51075        -0.21655
C         36.55167        26.78477        -0.20463
C         37.80443        28.91354        -0.42094
C         36.53418        29.69281        -0.23995
C         37.78418        31.69144        -1.20384
C         36.52467        30.92582        -1.12485
C         37.74992        33.05734        -1.55525
C         36.49252        33.77449        -1.60237
C         37.69237        35.92637        -1.87107
C         36.53031        35.21777        -1.61362
C         37.76041        37.38134        -1.76414
C         36.56323        38.12658        -1.56278
C         37.80265        40.25466        -1.33584
C         36.57124        39.55367        -1.43198
C         37.80873        41.64265        -1.06282
C         36.59039        42.28683        -0.71249
C         37.85817        44.50600        -0.53626
C         36.63829        43.69402        -0.26515
C         37.85257        45.86392        -0.37118
C         36.63704        46.57412         0.18709
C         37.82887        48.78337        -0.17423
C         36.61540        48.06331        -0.04079
C         37.82469        50.21170        -0.10861
C         36.60038        50.87112         0.16441
C         37.80297        53.08646        -0.26772
C         36.52302        52.33870         0.02627
C         37.76344        54.57731        -0.13696
C         36.51006        55.25555         0.24516
C         37.80680        57.28503         0.74442
C         36.57668        56.60966         0.53152
C         40.39665        14.79112         1.51106
C         40.37167        16.16501         1.21549
C         39.10376        16.88387         0.99147
C         40.33711        19.05830         1.15330
C         39.07462        18.28619         0.86548
C         40.33581        20.48623         0.66620
C         39.08791        21.14676         0.47422
C         40.28256        23.30574         0.40080
C         39.06292        22.56443         0.31342
C         40.24756        24.71578         0.33288
C         39.03015        25.39778         0.11681
C         40.25594        27.54685        -0.13527
C         39.02550        26.82381        -0.06208
C         40.24706        28.92010        -0.50181
C         39.00579        29.60816        -0.65251
C         40.23716        31.67770        -1.31077
C         39.00831        31.01098        -1.02523
C         40.21195        33.06684        -1.70613
C         38.97822        33.74220        -1.78430
C         40.22110        35.91193        -2.39610
C         38.92084        35.16186        -2.19334
C         40.21277        37.41731        -2.32596
C         38.98194        38.07446        -1.85049
C         40.32302        40.22903        -1.56902
C         39.07506        39.45101        -1.24287
C         40.27400        41.69764        -1.49900
C         39.04069        42.40752        -1.11735
C         40.32602        44.51334        -0.79127
C         39.08109        43.78617        -0.88664
C         40.33263        45.92461        -0.59983
C         39.04488        46.66851        -0.84197
C         40.28675        48.78131        -0.26737
C         39.07113        48.09616        -0.36294
C         40.30443        50.21477        -0.12615
C         39.07115        50.94191        -0.15816
C         40.30467        53.06613         0.08481
C         39.08285        52.35924        -0.12879
C         40.32151        54.48140         0.27016
C         39.09090        55.28901         0.11703
C         40.28007        57.25243         1.11003
C         39.03074        56.63912         0.69383
C         40.30250        58.48612         1.78292
C         42.81956        14.79248         1.46643
C         41.61308        14.11806         1.63155
C         42.84052        16.17555         1.18827
C         41.60246        16.84854         1.07493
C         42.86773        19.04016         0.68720
C         41.57473        18.28900         0.74319
C         42.84695        20.51621         0.74667
C         41.55747        21.19444         0.61231
C         42.76442        23.35555         0.49279
C         41.54019        22.61592         0.50833
C         42.75628        24.74634         0.47268
C         41.47577        25.50317         0.69342
C         42.70849        27.57126        -0.02005
C         41.49514        26.89034         0.11424
C         42.72596        28.95136        -0.41761
C         41.47763        29.62459        -0.68302
C         42.73912        31.57717        -1.51017
C         41.45758        30.95584        -1.15214
C         42.73671        33.06952        -1.86479
C         41.44888        33.81154        -1.88916
C         42.75208        35.91897        -2.15422
C         41.46457        35.17645        -2.09812
C         42.81008        37.41885        -2.29528
C         41.51315        38.18096        -2.30887
C         42.79065        40.25029        -1.66769
C         41.53660        39.58510        -1.80866
C         42.79622        41.60656        -1.01581
C         41.58241        42.43182        -1.36259
C         42.78775        44.44794        -0.60958
C         41.57269        43.82031        -0.86407
C         42.76921        45.83744        -0.01902
C         41.52155        46.62057        -0.36440
C         42.76779        48.74578        -0.13639
C         41.54042        48.04826        -0.27268
C         42.78620        50.17538         0.02537
C         41.54019        50.91002         0.01117
C         42.76872        53.03026         0.37137
C         41.53772        52.32887         0.15920
C         42.77531        54.43467         0.57052
C         41.52662        55.16871         0.56074
C         42.77569        57.36299         0.92682
C         41.50496        56.55406         0.88017
C         42.71770        58.44474         1.97687
C         41.52019        59.01003         2.30098
C         45.33953        16.26071         1.31462
C         44.10816        16.92237         1.12592
C         45.32851        19.07456         1.11147
C         44.12721        18.32897         0.96637
C         45.31733        20.53614         1.01422
C         44.04419        21.19989         0.76870
C         45.26549        23.40876         0.79137
C         44.07689        22.62956         0.29986
C         45.22093        24.81067         0.68460
C         43.97612        25.48797         0.43650
C         45.18222        27.61115         0.20983
C         43.95943        26.88809         0.23256
C         45.18694        29.00440        -0.10689
C         43.94879        29.65319        -0.46618
C         45.15891        31.73491        -0.97146
C         43.98124        31.00292        -0.96160
C         45.17299        33.12415        -1.33844
C         43.97780        33.78928        -1.61144
C         45.23715        36.00262        -1.42787
C         43.93794        35.24612        -1.54937
C         45.27022        37.44122        -1.77228
C         44.05748        38.14606        -1.94884
C         45.26934        40.27733        -1.63505
C         44.03645        39.57307        -1.79481
C         45.30383        41.67434        -1.35219
C         44.07059        42.39930        -1.16069
C         45.28213        44.53771        -0.85216
C         44.02681        43.76264        -0.86956
C         45.29500        45.90177        -0.26294
C         44.02918        46.62981        -0.24001
C         45.34922        48.70830        -0.20192
C         44.00818        48.00289        -0.18181
C         45.26954        50.15307         0.24276
C         44.00961        50.86125         0.23955
C         45.20801        52.98480         0.65625
C         44.00402        52.29268         0.43629
C         45.24134        54.39977         0.77335
C         44.00925        55.12878         0.78232
C         45.25563        57.19157         1.12681
C         44.03683        56.53877         0.98081
C         46.52117        16.97667         1.43933
C         47.78372        19.12646         1.66354
C         46.53054        18.38038         1.38220
C         47.76107        20.64880         1.57142
C         46.46685        21.29551         1.24170
C         47.57746        23.52839         1.60150
C         46.44330        22.75469         1.22355
C         47.59772        24.92639         1.32444
C         46.41417        25.56474         0.84914
C         47.62888        27.67879         0.54101
C         46.40740        26.95932         0.55041
C         47.63445        29.05720         0.15611
C         46.40547        29.71266        -0.11783
C         47.64690        31.73012        -0.87720
C         46.38704        31.21168        -0.27646
C         47.65242        32.99989        -1.67074
C         46.42935        33.83883        -1.39320
C         47.73551        35.92846        -1.62637
C         46.48547        35.21918        -1.48515
C         47.73216        37.36083        -1.64669
C         46.51304        38.09450        -1.75114
C         47.78967        40.22330        -1.43048
C         46.55509        39.57834        -2.00924
C         47.78298        41.60397        -1.11722
C         46.54800        42.32853        -1.14969
C         47.78855        44.35768        -0.30804
C         46.58440        43.77774        -0.92867
C         47.69892        45.66086         0.45736
C         46.45069        46.48258         0.17201
C         47.68575        48.61617         0.79030
C         46.33591        47.91728         0.68255
C         47.72606        50.07629         0.56889
C         46.46497        50.79108         0.51440
C         47.67901        52.96392         0.35603
C         46.48595        52.23730         0.93079
C         47.74569        54.41497         0.58640
C         46.49312        55.11190         0.85283
C         46.46905        56.49286         1.05083
C         49.53523        19.28119         3.38151
C         48.72419        18.51329         2.61707
C         49.50508        20.72028         3.29291
C         48.71831        21.41830         2.41454
C         49.92871        23.76429         2.69822
C         48.69339        22.91196         2.37872
C         49.94992        25.18871         2.19446
C         48.78096        25.72328         1.48025
C         50.09475        27.74308         0.81750
C         48.83460        27.04148         0.97829
C         50.09389        29.05515         0.21073
C         48.88765        29.72544        -0.00557
C         50.09794        31.55175        -1.26651
C         48.92870        31.20042        -0.34019
C         50.12714        33.04838        -1.46722
C         48.96149        33.75163        -1.55184
C         50.19551        35.90500        -1.67824
C         48.96334        35.20855        -1.65916
C         50.20347        37.34211        -1.58309
C         48.97800        38.06097        -1.56299
C         50.22606        40.15486        -1.09362
C         48.99416        39.48765        -1.37629
C         50.22658        41.54361        -0.76484
C         48.99807        42.26465        -0.75189
C         50.18369        44.22999         0.35890
C         48.95649        43.63846        -0.29817
C         50.19351        45.74970         0.28300
C         49.00264        46.42342         0.36468
C         50.23795        48.62035         0.50293
C         48.98688        47.86379         0.66583
C         50.21354        50.02471         0.49757
C         48.95252        50.72954         0.47299
C         50.22848        52.93110         0.24586
C         48.96612        52.18295         0.18521
C         50.17827        54.31303         0.27921
C         48.96641        55.04204         0.43749
C         52.61139        21.45405         4.25225
C         51.35930        22.04926         3.84046
C         52.50606        23.96454         2.87808
C         51.26740        23.21075         3.10539
C         52.53427        25.20516         2.29673
C         51.27107        25.92463         2.01303
C         52.57124        27.74443         0.84253
C         51.30463        27.14578         1.19006
C         52.57951        28.99852         0.14929
C         51.35773        29.69262        -0.12411
C         52.62009        31.61645        -1.00554
C         51.38906        30.95744        -0.74641
C         52.66237        32.97896        -1.44271
C         51.41347        33.68832        -1.89881
C         52.65315        35.84180        -1.62253
C         51.44350        35.18246        -1.67545
C         52.70397        37.32959        -1.86382
C         51.43288        38.04458        -1.49094
C         52.70451        40.10535        -0.97587
C         51.45729        39.42464        -1.19155
C         52.68590        41.46924        -0.62898
C         51.47563        42.20610        -0.48660
C         52.65788        44.30978         0.08128
C         51.48057        43.58927        -0.08250
C         52.67640        45.73659         0.33479
C         51.45753        46.46048         0.36573
C         52.69861        48.59597         0.56775
C         51.46479        47.88881         0.45079
C         52.69436        50.04392         0.55320
C         51.46159        50.75580         0.43768
C         52.70777        52.84932         0.26460
C         51.47411        52.17971         0.31775
C         53.78098        22.08804         4.04523
C         55.02728        23.89985         2.78098
C         53.79172        23.50959         3.56426
C         55.04769        25.15253         2.16216
C         53.81571        26.02773         2.24247
C         55.02060        27.64191         0.70663
C         53.79367        27.12492         1.19559
C         55.01357        28.83744        -0.06019
C         53.81813        29.57200        -0.25741
C         55.07109        31.58009        -1.03118
C         53.84793        30.91646        -0.78452
C         55.11461        32.96131        -1.34218
C         53.87698        33.65590        -1.55002
C         55.10773        35.78085        -1.65796
C         53.90486        35.11121        -1.66369
C         55.17307        37.16185        -1.08397
C         53.94154        37.99482        -1.33903
C         55.22451        39.94947        -0.68080
C         53.95405        39.34018        -1.03353
C         55.17725        41.31650        -0.11005
C         53.97566        42.16198        -0.42094
C         55.14642        44.27695         0.55288
C         53.95770        43.61872        -0.07607
C         55.17960        45.74542         0.54328
C         53.91942        46.44798         0.47523
C         55.16680        48.53941         0.97699
C         53.90626        47.85363         0.64851
C         55.18696        50.07810         0.90936
C         53.91930        50.77080         0.58065
C         53.90703        52.15790         0.40160
C         57.37557        23.58967         2.24975
C         56.18792        23.09884         2.76439
C         57.45482        24.89808         1.72285
C         56.25781        25.66270         1.62103
C         57.49976        27.44843         0.49552
C         56.27734        26.94356         0.95555
C         57.53058        28.62449        -0.38941
C         56.25186        29.32911        -0.67938
C         57.59694        31.51425        -1.09766
C         56.30960        30.79892        -1.10916
C         57.57789        32.94004        -1.31827
C         56.36798        33.63105        -1.49554
C         57.65843        35.82589        -1.87896
C         56.36167        35.05074        -2.03948
C         57.66385        37.23989        -1.70334
C         56.46048        37.90540        -1.31230
C         57.73385        39.90237        -0.52391
C         56.43658        39.25334        -0.83798
C         57.74329        41.31937        -0.01158
C         56.44457        42.01153         0.29610
C         57.68356        44.29011         0.45560
C         56.45379        43.50256         0.58725
C         57.66819        45.67064         0.62249
C         56.41199        46.39722         0.71632
C         57.65175        48.53206         0.88051
C         56.44582        47.82671         0.84426
C         57.63861        49.96563         0.73343
C         56.48811        50.68718         0.63684
C         59.95185        24.83211         1.59913
C         58.72837        25.49165         1.35646
C         59.99925        27.45714         0.55317
C         58.74533        26.79730         0.78529
C         60.04024        28.83875         0.10348
C         58.84473        29.39142        -0.55453
C         60.03593        31.56306        -0.83659
C         58.79705        30.84045        -0.85570
C         60.05293        32.91582        -1.37808
C         58.82960        33.62486        -1.53692
C         60.05478        35.43591        -2.55379
C         58.84240        34.99146        -1.98179
C         60.02658        37.71170        -2.54528
C         58.88405        38.08551        -1.80327
C         60.14723        40.12841        -1.16738
C         58.94350        39.36828        -1.19239
C         60.19450        41.48786        -0.62475
C         58.90650        42.17066        -0.39627
C         60.19444        44.32054         0.11452
C         58.89991        43.64746        -0.07837
C         60.17250        45.72142         0.52077
C         58.92516        46.40423         0.65176
C         60.14063        48.48650         1.05158
C         58.91757        47.80952         0.86265
C         61.16376        25.45760         1.32168
C         61.19111        26.76199         0.82676
C         61.16389        29.64670         0.21079
C         61.18159        30.95806        -0.31052
C         61.26433        33.49585        -1.80835
C         61.25224        34.72000        -2.47088
C         61.21292        38.45339        -2.55372
C         61.28807        39.63387        -1.83292
C         61.34947        42.23055        -0.50674
C         61.35025        43.60202        -0.11373
C         61.37008        46.43597         0.70810
C         61.34966        47.79989         0.99717
O         56.15374        29.70131        -2.08280
O         28.29868        35.74262        -3.05927
O         58.01665        40.22544         0.90035
O         35.28767        36.71588        -0.03564
O         33.84833        42.71130         0.83863
O         48.36381        48.15962         2.01984
O         55.09767        49.36915         2.18599
O         39.46883        35.39614        -3.53911
O         48.09615        52.53430        -0.96533
O         23.77090        29.48699         1.41694
O         58.34341        28.46757        -1.58725
O         36.93163        52.67044        -1.36676
O         38.49397        55.21824        -1.22744
O         42.82562        32.03409        -2.89732
O         35.86250        30.83637        -2.42085
O         58.61132        43.14150        -1.45889
O         40.75974        38.05608        -3.55152
O         42.14998        18.59485        -0.55461
O         29.60646        33.09996        -2.97946
O         27.96491        42.44040        -1.83614
O         55.63257        41.31407         1.28520
O         22.67401        36.95057        -2.59904
O         50.44698        26.10362         3.22807
O         60.02618        36.57711        -3.36489
O         41.00200        42.28634        -2.67579
O         23.53885        46.26561         1.37497
O         30.79014        44.55157        -1.74225
O         34.58491        51.47850         2.20468
O         48.36920        19.82930         0.51372
O         26.10291        44.38147         3.04477
O         26.34511        39.22804        -2.36434
O         50.23858        21.36067         4.30386
O         43.00816        36.53759        -3.45712
O         46.04460        44.52347        -2.10845
O         48.86953        23.56506         3.68725
O         34.10755        38.89226        -2.89629
O         36.11029        43.95938         1.10504
O         54.25376        43.17957        -1.45853
O         55.67507        43.75363         1.80606
O         44.37297        35.77543        -0.24396
O         50.07463        43.92211         1.78592
H         49.20073        44.28240         2.08506
O         30.76479        49.74562         3.30791
H         31.64551        49.34716         3.47055
O         42.84016        58.08018        -0.36814
H         42.00311        58.58432        -0.45933
O         46.34311        31.75145         1.12425
H         45.58085        31.32578         1.57401
O         36.65469        46.43752         1.63865
H         36.73549        45.46639         1.83040
O         27.40088        41.45968         1.70102
H         27.01418        41.91171         2.48206
O         35.44413        46.03685        -1.80938
H         34.56426        46.30854        -2.17328
O         53.86071        24.31257         4.80782
H         53.02277        24.16466         5.29757
O         41.39037        25.70262         2.16371
H         41.36863        24.81187         2.57453
O         49.88541        30.95130        -2.57533
H         49.75286        29.98743        -2.45104
O         39.23090        39.16866         0.22371
H         38.35311        38.88702         0.56336
O         44.26703        22.52941        -1.16305
H         43.55274        21.95423        -1.51271
O         34.21633        22.32763        -2.01874
H         34.22009        23.23855        -2.38337
O         51.39157        33.52570        -3.37005
H         51.08601        32.60710        -3.54960
O         49.16120        31.91725         0.91983
H         48.30344        31.91148         1.41005
O         27.07607        31.42447         0.92314
H         26.40367        31.08009         1.54849
O         33.91253        46.04303         1.53759
H         34.75632        46.24021         2.01314
O         42.64858        41.33624         0.42564
H         43.45450        40.86725         0.72948
O         33.89398        29.98501         1.23031
H         33.68129        29.14722         1.69711
O         45.76117        47.89183         2.01171
H         46.50822        47.81396         2.64756
O         53.90093        26.74459         3.51348
H         53.94837        26.05194         4.22178
O         55.14409        36.90527         0.38711
H         55.31037        37.76344         0.83711
O         29.05222        50.74978         0.24956
H         28.21846        51.24070         0.09608
O         52.80069        37.46057        -3.33745
H         52.14085        36.85123        -3.73381
O         45.89271        48.67879        -1.54420
H         45.28070        49.16130        -2.13777
O         47.54230        32.62830        -3.09715
H         47.77611        33.41662        -3.63159
O         22.82737        30.83035        -2.48268
H         23.56826        31.19575        -3.01229
O         30.31002        37.21286         0.37325
H         31.19939        36.88096         0.62460
O         56.25756        34.87315        -3.50718
H         57.00759        34.30783        -3.79158
O         38.89737        46.78308        -2.30234
H         38.84777        45.87399        -2.66841
O         40.43637        19.14292         2.61993
H         39.60972        19.55347         2.95110
O         24.40315        38.72221         1.20073
H         24.39073        39.42574         1.88524
O         36.59088        30.19907         1.13910
H         35.65487        30.31535         1.44737
O         27.37467        31.18989        -2.72094
H         28.02729        31.61609        -3.32369
O         46.68494        52.26392         2.38361
H         45.93476        51.78848         2.79874
O         42.71584        45.62404         1.44543
H         42.86985        46.49299         1.87473
O         46.68607        39.72761        -3.47926
H         46.61986        40.68511        -3.68383
O         23.76917        25.19253        -1.83502
H         22.90899        25.64630        -1.96615
O         32.84577        46.55289        -1.93699
H         32.07478        46.15466        -2.40259
O         47.59857        45.28536         1.88759
H         47.72414        46.12154         2.39581
H         22.90511        23.48312         0.38007
H         20.93297        24.77118         1.06572
H         20.86724        27.24460         0.83834
H         20.77239        29.32300         0.65171
H         20.73665        31.48286        -0.44716
H         20.76221        32.91831        -1.93403
H         20.72789        35.31988        -2.63721
H         20.73406        38.45908        -1.87742
H         20.84765        40.44089        -0.37255
H         20.96193        41.56281         1.33768
H         21.13361        43.74436         2.45928
H         21.41554        45.28106         3.77846
H         23.60970        48.93598         4.36682
H         21.64220        47.51512         4.75422
H         24.50784        22.55166        -0.21575
H         25.14810        50.08054         3.86884
H         26.62081        21.34271        -0.16004
H         27.05328        51.48058         3.23762
H         30.41496        19.23419        -0.13793
H         28.29058        20.40742        -0.21761
H         30.58328        53.87253         2.33854
H         28.49525        52.65303         2.50603
H         32.01636        18.36822         0.40885
H         31.95344        54.95112         1.23227
H         34.12220        17.18593         0.67698
H         33.95822        56.20734         0.69585
H         37.88194        15.07527         0.90760
H         35.77145        16.24252         0.59040
H         37.75485        58.33272         1.07152
H         35.65632        57.17233         0.73985
H         39.46351        14.22864         1.64634
H         39.36412        59.00633         2.01483
H         43.75417        14.22598         1.56775
H         41.61877        13.04272         1.85737
H         43.65212        58.86339         2.37629
H         41.47842        59.87140         2.98338
H         45.38306        15.16629         1.38107
H         45.28183        58.28274         1.25045
H         47.46026        16.42619         1.58558
H         47.40740        57.05929         1.11972
H         50.19467        18.82704         4.13367
H         48.68798        17.42812         2.78700
H         51.10820        54.89768         0.27751
H         49.04491        56.13431         0.52827
H         52.57583        20.46083         4.72149
H         52.74362        53.93904         0.14116
H         54.71852        21.63248         4.39123
H         54.84682        52.72554         0.40650
H         58.26784        22.95129         2.28675
H         56.17705        22.08822         3.19277
H         58.59100        50.48351         0.55599
H         56.53984        51.74001         0.32675
H         59.96397        23.81941         2.02273
H         60.15085        49.56293         1.26651
H         62.10722        24.92811         1.51345
H         62.16098        27.24008         0.63394
H         62.07743        29.26435         0.68699
H         62.11850        31.52785        -0.24643
H         62.20589        32.93822        -1.71943
H         62.16143        35.12033        -2.93704
H         62.06734        38.09403        -3.14095
H         62.22079        40.21130        -1.84483
H         62.32811        41.76567        -0.68883
H         62.32991        44.08503         0.00351
H         62.33790        45.92372         0.62812
H         62.29338        48.33828         1.16004
