         324
 CSIRO Nanostructure Databank - Neutral Graphene Oxide Data Set
C          1.89951         3.75056         2.41760
C          0.75629         4.45878         2.76487
C          1.51241         6.37932         1.46844
C          0.57159         5.77313         2.31461
C          1.39601         7.86395         1.16837
C          0.02598         8.40088         0.80326
C          1.09963        10.48430        -0.01657
C         -0.08356         9.63434         0.27816
C          1.02674        11.98231        -0.12867
C         -0.25187        12.73513        -0.09542
C          0.96324        14.83544        -0.37044
C         -0.26673        14.06951        -0.33453
C          0.98878        16.27971        -0.75301
C         -0.24144        17.10578        -0.90833
C          0.98067        19.23986        -0.48000
C         -0.21055        18.45316        -0.91931
C          1.07572        20.73919        -0.76229
C         -0.16587        21.49432        -0.36997
C          1.07752        23.56204         0.03242
C         -0.14481        22.83135        -0.11866
C          1.11780        24.97086         0.04653
C          0.00114        25.77270        -0.41706
C          1.15170        27.89609         0.06549
C          0.06910        27.12728        -0.54657
C          1.45287        29.28413        -0.34892
C          4.08034         3.60746         1.26213
C          2.87522         4.32998         1.57047
C          3.60940         6.18038         0.07870
C          2.65576         5.65069         1.08028
C          3.56417         7.62427        -0.31321
C          2.37170         8.37953         0.12530
C          3.62092        10.50164        -0.15216
C          2.43849         9.84887         0.08649
C          3.64605        11.96459         0.15041
C          2.28800        12.74318         0.21055
C          3.25242        15.05802         0.40747
C          2.13269        14.22600         0.07074
C          3.44204        16.33325        -0.01623
C          2.29040        17.03283        -0.61398
C          3.55355        19.23004        -0.20918
C          2.27221        18.50306        -0.33223
C          3.51835        20.63438        -0.05136
C          2.33521        21.36449        -0.19009
C          3.60468        23.51690         0.11405
C          2.31550        22.76785         0.38239
C          3.60002        24.93967         0.16916
C          2.36071        25.63235         0.29910
C          3.66710        27.76532         0.60806
C          2.38809        27.05808         0.56977
C          3.61499        29.25041         0.91614
C          2.59228        29.91073        -0.00183
C          6.29522         3.42852         0.16672
C          5.09391         4.12383         0.45812
C          5.97533         6.12349        -0.90335
C          4.86270         5.42996        -0.20312
C          5.92380         7.58038        -1.22619
C          4.79617         8.37381        -0.68618
C          6.08607        10.49706        -0.78250
C          4.83655         9.76552        -0.56235
C          6.11835        11.92543        -0.51934
C          4.97879        12.60882        -0.02411
C          6.20633        14.76340        -0.07557
C          5.15817        13.94512         0.35893
C          6.09895        16.24219        -0.20379
C          4.78194        16.97978        -0.15162
C          6.09589        19.15973         0.18140
C          4.78157        18.45592         0.09566
C          6.01665        20.62942        -0.21916
C          4.79395        21.34578         0.39155
C          6.05349        23.52652        -0.02806
C          4.81148        22.82771         0.06254
C          6.06169        24.94986         0.00776
C          4.83221        25.65650         0.14003
C          6.09270        27.85243        -0.02126
C          4.82526        27.09580         0.31676
C          6.12565        29.28356         0.53815
C          4.96564        29.90988         0.88176
C          8.55249         3.41712        -0.81239
C          7.25491         3.98556        -0.70575
C          8.79068         6.32767        -1.78524
C          6.94551         5.25727        -1.34143
C          8.60506         7.68839        -1.52256
C          7.29607         8.39540        -1.48315
C          8.54632        10.55895        -0.97896
C          7.29255         9.83386        -1.09114
C          8.57421        11.97743        -0.79386
C          7.34497        12.66945        -0.60964
C          8.60708        14.84666        -0.55762
C          7.38279        14.09508        -0.46885
C          8.60007        16.29220        -0.41597
C          7.37977        16.99221        -0.20229
C          8.54386        19.14736        -0.16868
C          7.37276        18.42231        -0.07772
C          8.54474        20.59068         0.16939
C          7.29746        21.38100         0.02525
C          8.58800        23.46802        -0.09567
C          7.29563        22.75095        -0.00778
C          8.59243        24.97677         0.04442
C          7.30757        25.70122         0.17431
C          8.49348        27.75912         1.00393
C          7.32593        27.05680         0.34559
C          8.59684        29.23335         0.63681
C          7.39834        29.94342         0.53695
C         10.97273         3.43229        -0.62707
C          9.78680         4.11138        -1.00337
C         11.04740         6.21769        -0.88261
C          9.89098         5.53954        -1.29543
C         11.13886         7.65557        -1.13520
C          9.82933         8.46353        -1.39173
C         11.00489        10.59108        -0.84657
C          9.79660         9.89308        -1.03942
C         11.03554        12.00119        -0.73797
C          9.80748        12.71012        -0.75746
C         11.07042        14.87402        -0.73082
C          9.82021        14.15096        -0.68550
C         11.06646        16.33171        -0.70065
C          9.82948        17.00607        -0.52243
C         11.10294        19.20588        -0.31718
C          9.80534        18.50628        -0.69370
C         11.11503        20.56735        -0.07852
C          9.86099        21.30079         0.22337
C         11.05607        23.46835         0.12402
C          9.85976        22.76916         0.10331
C         11.05038        24.92084         0.31256
C          9.84597        25.60906         0.45425
C         11.12883        27.77397         0.80919
C          9.82250        27.00475         0.91136
C         11.09065        29.24374         0.62844
C          9.83687        29.89949         0.56939
C         13.36334         3.49950         0.15695
C         12.17116         4.11498        -0.27863
C         13.22506         6.28686         0.29292
C         12.15295         5.54792        -0.28207
C         12.95250         7.68996         0.45427
C         12.13634         8.39417        -0.38106
C         13.55861        10.57986        -0.53020
C         12.27169         9.83495        -0.71448
C         13.53463        12.05492        -0.65954
C         12.29747        12.72133        -0.68599
C         13.53778        14.84401        -1.03287
C         12.27106        14.15091        -0.75807
C         13.51639        16.36365        -1.16159
C         12.28789        17.07547        -0.79162
C         13.56704        19.21157        -0.55653
C         12.34762        18.49602        -0.54630
C         13.60132        20.62611        -0.24959
C         12.34027        21.32598        -0.04174
C         13.54856        23.46667         0.28322
C         12.29754        22.71604         0.11461
C         13.51650        24.92375        -0.02803
C         12.29023        25.66103         0.31108
C         13.58005        27.78109         0.28134
C         12.33946        27.04576         0.39620
C         13.55794        29.22276         0.42078
C         12.30284        29.91477         0.48609
C         15.74000         3.56740         0.71791
C         14.52313         4.25322         0.48736
C         15.75251         6.42975         0.76529
C         14.49497         5.69653         0.57875
C         15.88643         7.84934         0.75723
C         14.80197         8.78623         0.78561
C         16.04469        10.55495        -0.36058
C         14.77474         9.97837         0.08694
C         16.07095        11.99665        -0.79494
C         14.79043        12.76176        -0.71768
C         16.03455        14.90303        -0.34048
C         14.81374        14.13863        -0.80273
C         16.13235        16.30933        -0.95484
C         14.85187        17.07546        -1.19973
C         16.15023        19.28616        -0.81568
C         14.83127        18.57052        -1.02539
C         16.10158        20.60758        -0.12964
C         14.81257        21.32346        -0.15184
C         16.12785        23.52820        -0.01715
C         14.86845        22.74691         0.20539
C         16.08917        24.91132        -0.07172
C         14.81443        25.66446        -0.13727
C         16.04550        27.82507         0.19352
C         14.80437        27.11753         0.11158
C         16.01904        29.25393         0.36753
C         14.76637        29.92420         0.44041
C         18.17983         3.50242         0.95750
C         16.95717         4.25277         0.85046
C         18.28745         6.32420         0.78797
C         16.99172         5.68290         0.81366
C         18.42462         7.73587         0.68156
C         17.19522         8.52122         0.71897
C         18.58046        10.57898        -0.05353
C         17.27142         9.95248         0.21781
C         18.61440        11.96705        -0.32326
C         17.41601        12.72921        -0.91654
C         18.56492        14.82152        -0.06423
C         17.33167        14.14338        -0.42095
C         18.60431        16.35751        -0.12556
C         17.43463        17.05029        -0.74227
C         18.68946        19.24976        -0.26982
C         17.46563        18.55663        -0.76182
C         18.68302        20.64496        -0.07681
C         17.38886        21.35042         0.10488
C         18.60566        23.50135         0.03820
C         17.38603        22.82822         0.03032
C         18.65023        24.96001        -0.16662
C         17.30951        25.70442        -0.24040
C         18.50879        27.85152         0.21691
C         17.28616        27.15015         0.08052
C         18.47295        29.28185         0.37531
C         17.23742        29.95571         0.42805
C         19.39755         4.12151         0.94403
C         20.73612         6.19860         0.72555
C         19.48254         5.54628         0.82419
C         20.83168         7.56910         0.55492
C         19.66863         8.38248         0.51768
C         20.97188        10.53247         0.29374
C         19.74604         9.83309         0.26764
C         21.00702        11.90946         0.12837
C         19.84100        12.65684        -0.16142
C         21.02409        14.86011        -0.15432
C         19.86015        14.11939        -0.14476
C         21.05172        16.28575        -0.16473
C         19.90652        17.05456        -0.21306
C         21.10136        19.24453         0.01243
C         19.90685        18.51824        -0.20020
C         21.09689        20.62481         0.14794
C         19.88842        21.35555         0.13583
C         20.98228        23.56952         0.56869
C         19.85400        22.81278         0.26576
C         20.95546        24.98656         0.63338
C         19.84177        25.71482         0.24912
C         20.94868        27.93422         0.36864
C         19.78242        27.17195         0.25740
C         20.90546        29.34023         0.46091
C         19.69717        30.00568         0.48077
O         17.80655        17.77533        -1.94791
O          7.76358         5.62125        -2.41228
O         16.05209        10.90664        -1.78322
O         18.38326        15.70818         1.16052
O         10.80438         8.14634        -2.44706
O          1.87999        16.55606        -1.92421
O         10.62872        27.27838         2.10990
O         15.48938        19.32143        -2.10740
O          2.38662         7.80740        -1.20975
O          9.21497        20.83514         1.48390
O          6.36658         8.02612        -2.53094
O          3.68924         5.32463        -1.11716
O         14.04520        25.26427        -1.35303
O         18.08000        25.39107        -1.44688
O         16.66718        20.69309         1.23149
O          8.66336        24.34197        -1.28525
O         17.17613         9.68168         1.65453
O          4.22863        14.50380         1.22831
O         15.64961        16.53282        -2.29138
O          5.34423        16.62531        -1.46597
O         13.21830         9.96023        -1.84638
O         13.64230         8.38698         1.44842
O          2.95164        12.26528         1.41422
O          1.35389        27.57620         1.46904
O         13.39430        15.52405        -2.34820
O          6.06853        28.03088        -1.41193
O          1.40347        18.83161         0.85247
O          5.40376        18.79537         1.42172
O          1.06371        11.16292        -1.34497
O         14.25996        23.10344         1.51522
O          1.16392        20.82615        -2.22397
H          1.29045        21.76695        -2.46843
O          1.81456         8.53400         2.39905
H          1.21200         8.25204         3.11896
O          3.13512        29.43880         2.27499
H          2.31156        28.89904         2.36468
O          4.83447        21.32143         1.84010
H          4.93405        20.37242         2.11276
O         17.70421        12.81155        -2.34863
H         17.31408        12.00776        -2.76554
O          2.26658        22.57950         1.84061
H          3.11697        22.13724         2.09877
O          8.11284        27.75183         2.41580
H          8.95475        27.78495         2.92900
O         15.74275        15.16193         1.08685
H         16.61371        15.35589         1.52210
O          5.78510        20.64419        -1.65520
H          6.57219        20.27313        -2.10784
O          9.72154        18.71693        -2.16637
H         10.44585        18.19732        -2.57926
H          2.05305         2.72953         2.79508
H         -0.00012         3.99698         3.41443
H         -0.32509         6.33133         2.62224
H         -0.87302         7.79355         0.98848
H         -1.07317        10.03378         0.01078
H         -1.19314        12.16874        -0.06009
H         -1.22448        14.59727        -0.44437
H         -1.17962        16.59002        -1.16451
H         -1.12760        19.00818        -1.16890
H         -1.13320        20.97521        -0.43794
H         -1.10002        23.36444         0.00336
H         -0.87410        25.24800        -0.82580
H         -0.71025        27.66991        -1.10196
H          0.72440        29.77984        -1.00962
H          4.20210         2.60245         1.69381
H          2.77127        30.94424        -0.33415
H          6.50624         2.47443         0.67238
H          5.01765        30.90201         1.36063
H          8.65647         2.40019        -0.39685
H          7.43436        31.03144         0.36154
H         10.92937         2.34211        -0.48070
H          9.83147        30.98937         0.40824
H         13.43190         2.40147         0.17589
H         12.30542        31.01302         0.41301
H         15.74451         2.46731         0.70011
H         14.75483        31.01986         0.53988
H         18.11280         2.40670         1.02147
H         17.22599        31.05046         0.53634
H         20.32585         3.53526         1.00119
H         21.65164         5.59025         0.75713
H         21.82554         8.02254         0.44154
H         21.90708        10.00466         0.52409
H         21.96789        12.42760         0.25024
H         21.99356        14.34521        -0.20343
H         22.03930        16.76610        -0.19274
H         22.06107        18.71377         0.06992
H         22.05359        21.14574         0.28836
H         21.93198        23.06765         0.79864
H         21.86820        25.50310         0.96185
H         21.92839        27.43712         0.37933
H         21.84656        29.90234         0.53644
H         19.66304        31.09975         0.58262
