         344
 CSIRO Nanostructure Databank - Neutral Graphene Oxide Data Set
C          1.61030         2.04929        -2.08499
C          1.56613         3.45687        -1.97256
C          2.77322         1.35972        -1.81716
C          2.69769         4.18620        -1.59750
C          1.61765         6.44930        -2.16179
C          1.73591         7.78411        -2.30123
C          2.62751         5.68633        -1.33405
C          2.85151         8.53254        -1.71692
C          1.70096        10.72091        -2.12974
C          1.70127        12.09897        -2.16457
C          2.82127         9.98754        -1.65057
C          2.82463        12.84616        -1.72242
C          1.74777        15.04582        -2.26815
C          1.79234        16.42297        -2.33503
C          2.85481        14.28748        -1.78811
C          2.95287        17.13527        -1.93570
C          3.01463        18.56319        -2.00813
C          3.95993         2.06254        -1.42669
C          3.89983         3.50076        -1.29588
C          5.15519         1.38140        -1.19641
C          5.03160         4.22004        -0.74088
C          4.00283         6.33656        -1.52525
C          3.95587         7.83293        -1.26828
C          5.04043         5.58977        -0.71912
C          5.09682         8.51951        -0.69894
C          3.92941        10.69834        -1.13928
C          3.93904        12.13576        -1.18217
C          5.08702         9.98080        -0.63747
C          5.07531        12.85796        -0.71817
C          4.02415        14.98099        -1.37311
C          4.07761        16.40741        -1.45450
C          5.14402        14.25668        -0.84319
C          5.25808        17.10674        -1.06430
C          4.14722        19.23895        -1.63667
C          5.30629        18.53483        -1.16575
C          6.41191         2.16775        -0.97843
C          6.14285         3.39729        -0.10427
C          7.59397         1.38377        -0.48218
C          7.43419         4.16134         0.10637
C          6.08932         6.34132        -0.01426
C          6.15357         7.80852        -0.15750
C          7.33959         5.59741         0.40613
C          7.28855         8.50456         0.56022
C          6.18693        10.66638        -0.13312
C          6.12323        12.15020         0.09700
C          7.39425         9.97524         0.23266
C          7.46477        12.83836         0.08633
C          6.34228        14.97039        -0.46223
C          6.39746        16.38510        -0.59619
C          7.50446        14.25365        -0.03567
C          7.60209        17.08649        -0.27983
C          6.48033        19.21902        -0.81769
C          7.64045        18.52222        -0.39217
C          8.69782         2.05024         0.00320
C          8.64042         3.50701         0.20814
C          9.91806         1.36457         0.29285
C          9.84896         4.22721         0.57170
C          8.60020         6.36708         0.50943
C          8.58756         7.73466         0.45679
C          9.83875         5.62481         0.66863
C          9.87578         8.45765         0.44607
C          8.57778        10.66815         0.41932
C          8.63289        12.11541         0.36772
C          9.87427         9.95258         0.46757
C          9.86224        12.79294         0.65771
C          8.72907        14.94306         0.22660
C          8.76358        16.37470         0.11653
C          9.89040        14.21877         0.61195
C          9.97274        17.07801         0.39134
C          8.83119        19.20964        -0.08820
C         10.00064        18.51497         0.29729
C         11.08491         2.03465         0.66239
C         11.08278         3.49481         0.81312
C         12.29135         1.32090         0.86020
C         12.22094         4.15168         1.21175
C         11.03311         6.35794         0.99643
C         11.07652         7.73693         0.91100
C         12.21096         5.61774         1.56081
C         12.28531         8.48836         1.17296
C         11.08060        10.66253         0.93995
C         11.03928        12.05082         1.02496
C         12.28268         9.90547         1.19167
C         12.21840        12.77797         1.61844
C         11.11983        14.93147         0.88296
C         11.14718        16.36579         0.75471
C         12.28649        14.23780         1.24312
C         12.34743        17.07814         1.02540
C         11.19649        19.20686         0.59179
C         12.36433        18.51179         0.95665
C         13.50545         1.96775         1.16171
C         13.50036         3.43119         1.54109
C         14.72252         1.29639         1.13277
C         14.69942         4.16328         0.90294
C         13.52526         6.33755         1.31463
C         13.51493         7.76483         1.33509
C         14.72869         5.63730         1.26301
C         14.75201         8.46957         1.45275
C         13.52747        10.61922         1.38776
C         13.52612        12.04297         1.43530
C         14.75054         9.91071         1.48886
C         14.74019        12.75607         1.49151
C         13.51691        14.92537         1.42630
C         13.54097        16.37241         1.36249
C         14.73151        14.20170         1.57013
C         14.71341        17.09094         1.65691
C         13.56982        19.20447         1.26663
C         14.71534        18.50893         1.62137
C         15.98071         1.99945         1.21469
C         15.96547         3.43173         1.24365
C         17.19360         1.31408         1.10844
C         17.16941         4.17426         1.55420
C         15.97348         6.34003         1.41759
C         15.96009         7.75313         1.55970
C         17.20963         5.63388         1.51995
C         17.21198         8.45607         2.01403
C         15.99912        10.62050         1.56347
C         15.98497        12.04699         1.50593
C         17.23303         9.92629         1.67586
C         17.22129        12.76291         1.53862
C         15.97455        14.90049         1.67971
C         15.98333        16.37463         2.04520
C         17.16868        14.20782         1.57827
C         17.18853        17.13738         1.54561
C         15.97869        19.23880         2.00462
C         17.20438        18.51063         1.50517
C         18.42519         2.07686         0.72107
C         18.50484         3.42152         1.40413
C         19.72558         1.34415         0.84954
C         19.73934         4.21498         1.22853
C         18.46659         6.33608         1.54947
C         18.47996         7.72160         1.65894
C         19.72761         5.60254         1.39187
C         19.77343         8.45377         1.90876
C         18.46637        10.63020         1.63740
C         18.44399        12.05365         1.58374
C         19.73000         9.92632         1.57663
C         19.75596        12.79914         1.74020
C         18.46038        14.97344         1.70493
C         18.40845        16.38524         1.08934
C         19.58492        14.16345         1.04087
C         19.68111        17.16091         1.47399
C         18.37838        19.23315         1.09771
C         19.61752        18.59051         0.98129
C         20.91445         2.02892         0.89506
C         20.95682         3.49285         1.04098
C         22.15057         1.33084         0.65474
C         22.17679         4.18063         1.02774
C         20.96765         6.32075         1.28727
C         20.98723         7.72977         1.38366
C         22.19805         5.60515         1.09557
C         22.17351         8.44144         1.09195
C         20.94102        10.59061         1.28335
C         20.96606        12.05160         1.21617
C         22.13228         9.86221         1.00537
C         22.13482        12.73380         1.03108
C         20.87340        14.96263         0.83896
C         20.91899        16.41310         1.04339
C         22.19246        14.20699         0.84496
C         22.10946        17.08605         0.85305
C         20.82821        19.23565         0.69617
C         22.07376        18.54125         0.71637
C         23.35588         1.99102         0.58721
C         23.47171         3.39582         1.12671
C         24.51940         1.34519         0.08642
C         24.66486         4.15629         0.60698
C         23.42514         6.33668         0.97890
C         23.41664         7.73019         0.90131
C         24.74668         5.60348         1.03108
C         24.65938         8.48412         0.67613
C         23.31859        10.58255         0.40759
C         23.41435        11.98834         0.95664
C         24.63259         9.84550         0.50972
C         24.70547        12.73630         0.95081
C         23.43045        14.97457         1.00870
C         23.39005        16.37567         0.82914
C         24.71017        14.23643         1.14042
C         24.58598        17.14076         0.69764
C         23.26730        19.22319         0.49198
C         24.51887        18.54360         0.46488
C         25.68845         2.05045        -0.17156
C         25.75976         3.48689         0.09979
C         26.82082         1.38829        -0.73608
C         26.96967         4.19690        -0.26634
C         25.88874         6.37930         0.42083
C         25.91055         7.74017         0.49491
C         27.18229         5.60870         0.24329
C         27.27330         8.44049         0.54199
C         25.85968        10.59017         0.01403
C         25.90239        12.08678         0.37039
C         27.19687         9.99715         0.50517
C         27.05793        12.77748         0.17061
C         26.00018        14.99708         0.98705
C         25.95330        16.55177         0.96954
C         27.26551        14.25274         0.50639
C         27.04898        17.20882         0.12546
C         25.67538        19.27694         0.07934
C         26.88041        18.63223        -0.24139
C         27.92976         2.10045        -1.15110
C         27.96301         3.53620        -0.95755
C         29.11805         1.41336        -1.63131
C         29.05716         4.29533        -1.59104
C         28.21619         6.39753        -0.53875
C         28.25981         7.79157        -0.41507
C         29.21279         5.72491        -1.28536
C         29.32516         8.52648        -1.00767
C         28.28005        10.67278        -0.32906
C         28.21814        12.07604        -0.40793
C         29.32936         9.97112        -0.96363
C         29.23480        12.79087        -1.08398
C         27.87056        14.91624        -0.76013
C         28.08032        16.41614        -0.62091
C         29.23985        14.30038        -1.11262
C         28.90596        17.10050        -1.64542
C         27.86993        19.26223        -1.00587
C         28.86678        18.52560        -1.71360
C         30.23223         2.06804        -2.03622
C         30.23334         3.53598        -2.18492
C         31.47907         4.29521        -2.35207
C         30.34024         6.41140        -1.78262
C         30.37549         7.83896        -1.67765
C         31.48200         5.65019        -2.25305
C         31.42500         8.59806        -2.28514
C         30.36207        10.69550        -1.63528
C         30.30779        12.11892        -1.68387
C         31.41156         9.96654        -2.27584
C         31.30678        12.91528        -2.39895
C         29.71045        14.83743        -2.51499
C         29.76007        16.36896        -2.49419
C         31.06207        14.18223        -2.77635
C         30.56193        17.06869        -3.40837
C         29.72822        19.19840        -2.61898
C         30.56177        18.47088        -3.45360
O         29.13441         4.01936        -3.03811
O         21.50658        14.58037        -0.43572
O         28.35880        16.91415         0.72745
O         10.11123         9.21774        -0.81226
O         17.91726         3.53500         2.68789
O          6.28897         5.89654         1.41214
O         24.20614        12.06860         2.17728
O         28.80305        14.44154        -3.49904
O         25.56406        14.55766         2.30179
O         27.86017         8.06977         1.79639
O         19.92744         8.43495         3.38306
H         19.04472         8.68190         3.75901
O         25.82504        10.47112        -1.43261
H         24.96051        10.83278        -1.73540
O         23.70314         3.22951         2.56718
H         24.14717         4.06237         2.88038
O         18.33466        16.33345        -0.35162
H         18.45985        15.39578        -0.64692
O         16.04532        19.25160         3.45440
H         16.91152        19.63129         3.71139
O          6.79336         2.71287        -2.29395
H          6.97257         1.95540        -2.88974
O         18.27551         2.40688        -0.71912
H         18.31319         1.56296        -1.21759
O          4.34169         6.16203        -2.93115
H          5.22098         6.56405        -3.08859
O         23.03253        10.72507        -1.03320
H         22.86708         9.82723        -1.39302
O          5.65183        12.28901         1.49886
H          5.63857        13.24772         1.70762
O         19.74255        17.30666         2.92487
H         20.59050        17.74977         3.13904
O         30.21340        14.77969        -0.17570
H         29.84609        14.65371         0.73232
O         25.10738         5.53400         2.46885
H         26.09652         5.40040         2.48274
O         26.90526        14.69425        -1.79675
H         27.40906        14.55746        -2.66261
O         11.97853        12.76985         3.08051
H         12.73389        13.23264         3.50272
O         27.35874        10.46287         1.85831
H         27.71356         9.67387         2.35601
O         18.67921        15.10821         3.12896
H         17.89958        15.59485         3.50124
O         28.22033        14.32378         1.58424
H         27.79518        13.91686         2.37154
O         19.10274        13.81982        -0.29166
H         19.90876        13.75385        -0.86340
O         26.24752        16.98878         2.32485
H         27.20037        16.79487         2.47551
O         14.49697         4.07432        -0.54029
H         15.29118         4.43752        -0.98494
O         27.71345         5.44393         1.60649
H         27.92645         6.38991         1.89780
O         20.04536        12.91401         3.14820
H         19.43473        13.58769         3.53953
O          2.27024         5.84452         0.06411
H          1.39667         5.42524         0.20675
O          6.94449         8.48582         1.99051
H          6.63452         7.56762         2.19329
O          5.68619         2.96215         1.19748
H          5.59999         3.76986         1.75206
O         17.16318         8.43206         3.51210
H         16.98275         7.50325         3.77668
O         16.10669        16.40642         3.51874
H         16.03053        17.36241         3.77734
O         13.71318         3.50896         2.98735
H         13.15173         2.82539         3.41052
O         12.04782         5.67722         3.02436
H         12.74874         5.08745         3.39868
H          0.70356         1.50670        -2.38699
H          0.61705         3.97136        -2.18007
H          2.80772         0.26461        -1.90801
H          0.74755         5.93209        -2.59286
H          0.96711         8.32972        -2.86615
H          0.81098        10.19030        -2.49188
H          0.81440        12.61495        -2.55520
H          0.83165        14.53307        -2.59006
H          0.92201        16.98339        -2.70598
H          2.13476        19.11239        -2.37373
H          5.19862         0.28798        -1.32101
H          4.18755        20.33591        -1.70248
H          7.64338         0.29905        -0.66668
H          6.51338        20.31579        -0.89810
H          9.94532         0.27064         0.17504
H          8.85735        20.30660        -0.16599
H         12.29999         0.23593         0.67331
H         11.21478        20.30492         0.53085
H         14.74038         0.21426         0.93302
H         13.58081        20.30405         1.23269
H         17.18879         0.21883         1.00331
H         15.95540        20.29915         1.62971
H         19.73008         0.25271         0.70487
H         18.30492        20.32002         0.93473
H         22.09671         0.26656         0.37781
H         20.83172        20.30957         0.45394
H         24.45456         0.28386        -0.19877
H         23.24964        20.30837         0.31370
H         26.79042         0.29498        -0.85589
H         25.56342        20.34697        -0.15434
H         29.11415         0.31352        -1.58759
H         27.77920        20.34195        -1.20368
H         31.14307         1.51045        -2.30181
H         32.40740         3.74929        -2.57688
H         32.42562         6.18393        -2.43349
H         32.23715         8.07858        -2.81110
H         32.21782        10.50958        -2.78673
H         32.27274        12.45469        -2.65413
H         31.81835        14.73952        -3.34976
H         31.21216        16.51719        -4.10142
H         29.70717        20.29664        -2.66700
H         31.21601        18.99193        -4.16656
