         290
 CSIRO Nanostructure Databank - Neutral Graphene Oxide Data Set
C        -10.66364         0.96857        -1.27797
C         -9.71204         1.60409        -0.36014
C         -8.65520         0.85252         0.15950
C         -7.69052         1.49317         1.13953
C         -6.36023         0.71912         1.15357
C         -5.07767         1.44020         1.39832
C         -3.84967         0.67711         1.83599
C         -2.50393         1.41549         1.80352
C         -1.37611         0.59089         1.08284
C         -0.08946         1.37479         1.29974
C          1.21015         0.66079         1.42228
C          2.49612         1.43116         1.28751
C          3.79616         0.69370         1.27543
C          5.06912         1.44742         0.88147
C          6.40328         0.76073         0.89983
C          7.71200         1.49947         0.50808
C          8.75875         0.60109        -0.12349
C          9.97187         1.30245        -0.65141
C         11.22307         0.49232        -0.70128
C         -9.81858         2.98378        -0.06843
C         -8.67837         3.70681         0.42552
C         -7.53505         2.96761         0.84175
C         -6.18712         3.64272         0.86706
C         -5.19208         2.91204         1.81589
C         -3.82706         3.62652         1.79709
C         -2.65382         2.84288         1.18898
C         -1.32875         3.65159         1.35693
C         -0.12294         2.82675         0.91086
C          1.14899         3.55346         0.61989
C          2.44828         2.73431         0.48170
C          3.75097         3.57833         0.76547
C          4.94349         2.80312         0.16191
C          6.27968         3.59805         0.21456
C          7.43088         2.72888        -0.38507
C          8.68775         3.52575        -0.67659
C         10.04460         2.83217        -0.55991
C         -8.68216         5.11917         0.39425
C         -7.39663         5.88805         0.43557
C         -6.31835         5.13229         1.19287
C         -5.09551         5.88385         1.59015
C         -3.79180         5.12292         1.67654
C         -2.69069         5.73244         0.83701
C         -1.39700         4.95919         0.53023
C         -0.13082         5.78626         0.76512
C          1.20728         5.04647         0.99298
C          2.40846         5.79231         0.35638
C          3.69041         5.01817         0.22708
C          4.78872         5.48649        -0.68503
C          6.12237         4.87350        -0.58232
C          7.24261         5.48502        -1.19527
C          8.54543         4.79153        -1.13975
C         -7.46323         7.35612         0.79473
C         -6.33866         8.06540         1.10390
C         -5.05639         7.37869         1.40173
C         -3.79405         8.06629         0.96422
C         -2.71331         7.17212         0.43307
C         -1.48565         7.79438        -0.26002
C         -0.16659         7.17167         0.21233
C          1.05614         7.76457        -0.39225
C          2.22648         7.05901        -0.40218
C          3.49099         7.78640        -0.83407
C          4.68666         6.89874        -1.17226
C          5.97976         7.66225        -1.43198
C          7.12789         6.74882        -1.79201
C         -6.27293         9.51427         0.93527
C         -5.12630        10.14450         0.56182
C         -3.85187         9.45194         0.42380
C         -2.72300        10.01641        -0.08647
C         -1.37631         9.31962        -0.00886
C         -0.33158         9.90082        -0.98327
C          0.95902         9.07921        -1.05280
C          2.00552         9.54522        -1.78302
C          3.20197         8.65577        -2.06101
C          4.46878         9.33516        -2.54484
C          5.69890         8.83078        -2.35614
C        -10.65782        -0.35947        -1.49014
C         -9.80909        -1.27385        -0.63485
C         -8.46717        -0.59086        -0.24945
C         -7.76782        -1.41256         0.85097
C         -6.44162        -0.77791         1.33865
C         -5.17760        -1.55487         1.60040
C         -3.85174        -0.81938         1.81953
C         -2.53376        -1.59182         1.77002
C         -1.24638        -0.87122         1.52607
C         -0.06085        -1.53472         1.29963
C          1.21829        -0.79545         1.05824
C          2.53672        -1.50787         0.91074
C          3.82273        -0.83717         1.44322
C          5.07645        -1.43767         0.79365
C          6.41077        -0.74856         1.04719
C          7.68848        -1.52195         0.88399
C          8.98462        -0.79604         0.47942
C          9.88421        -1.61201        -0.48234
C         11.19018        -0.85121        -0.63497
C         -9.53215        -2.62596        -1.30302
C         -8.61342        -3.52350        -0.47512
C         -7.65555        -2.90759         0.49001
C         -6.36704        -3.67720         0.71676
C         -5.09372        -2.91070         0.95001
C         -3.77811        -3.60903         0.79098
C         -2.54240        -3.07397         1.45041
C         -1.23312        -3.80875         1.24714
C          0.05690        -3.01743         1.28514
C          1.32678        -3.66501         0.83183
C          2.53629        -2.99768         0.79929
C          3.78805        -3.67442         0.45512
C          5.04514        -2.86446         0.32876
C          6.35908        -3.60209         0.16307
C          7.62540        -3.06071         0.81629
C          8.86781        -3.74948         0.27812
C         10.01311        -3.04566        -0.03871
C         -8.55619        -4.84009        -0.80829
C         -7.50278        -5.76963        -0.35189
C         -6.28870        -5.12532         0.26479
C         -4.93915        -5.84481         0.19854
C         -3.71395        -4.94565         0.07822
C         -2.39711        -5.59746        -0.23044
C         -1.26482        -5.25347         0.74130
C          0.09415        -5.76204         0.32870
C          1.26702        -5.08206         0.51425
C          2.56573        -5.81211         0.45882
C          3.80144        -5.02939         0.20716
C          5.03048        -5.78212        -0.16186
C          6.35194        -5.07398        -0.09376
C          7.59823        -5.88136         0.10232
C          8.82673        -5.16553         0.16325
C         -7.38302        -7.15656        -0.88562
C         -6.19053        -7.81168        -0.90459
C         -4.90960        -6.98219        -0.88841
C         -3.59960        -7.86156        -0.69088
C         -2.36983        -6.95768        -1.02121
C         -1.07197        -7.74925        -0.87554
C          0.13458        -7.13946        -0.23883
C          1.25139        -8.07706         0.20698
C          2.56206        -7.31557         0.36170
C          3.79097        -8.04040         0.03604
C          5.04378        -7.28376        -0.10926
C          6.29238        -8.02329         0.33096
C          7.56453        -7.26286         0.08717
C         -6.08958        -9.24096        -1.16646
C         -4.91815        -9.86558        -1.40540
C         -3.62168        -9.10235        -1.60404
C         -2.39818        -9.99449        -1.28069
C         -1.08568        -9.23785        -1.05093
C          0.07672        -9.92924        -0.99554
C          1.41493        -9.24665        -0.80793
C          2.58309       -10.10757        -0.39025
C          3.79059        -9.44379        -0.17585
C          5.09130       -10.11716        -0.28861
C          6.25941        -9.45766        -0.14740
O          3.83718         8.65490         0.25729
H          3.91460         8.10095         1.06516
O          4.38893         5.81293        -2.07905
O         -4.14639         8.00242         2.37654
O         -3.32700         6.15133        -0.42399
O         -3.96425        -0.06247         3.07806
O          5.89146         1.44688         2.08593
O         -3.52901         4.46854         2.94075
O         -0.44554        -3.72653         2.47388
O         -8.29620         1.36848         2.46012
H         -8.49104         0.40470         2.59771
O          4.90851        -1.73512        -0.61625
O         -2.99217         2.75573        -0.20378
H         -2.58539         1.94816        -0.60484
O         -5.48350         1.08868         0.03790
O          6.53749        -4.10143        -1.18540
O         -4.77490        -6.38575         1.54028
H         -5.67995        -6.63640         1.85231
O          4.62370         2.63503        -1.21910
H          5.31535         2.08038        -1.65414
O          0.90603        -8.64984         1.47786
H          1.24081        -8.04210         2.17538
O          2.68981        -6.65870         1.68969
O         -2.62216        -2.61015         2.82009
O          8.94051         0.77527        -1.55705
O          1.87222        -8.73178        -2.08513
H          1.13978        -8.18298        -2.46349
O          0.47472         1.06223         2.61130
O          6.15395        -8.08298         1.79618
H          6.87694        -8.64648         2.14365
O         10.62494         3.16918         0.70723
H         10.00681         2.83187         1.40178
O          9.74905        -0.61317         1.68449
H          9.12415        -0.30612         2.38089
O          1.44638         5.01907         2.41560
H          1.06834         5.84872         2.78959
O          3.27562         1.33829         2.49548
O         -4.29862        -2.67754        -0.25421
O         -7.37570        -3.58479         1.75851
O          3.95944         3.67853         2.17580
H          3.27133         4.29162         2.54153
O          8.33253         1.94855         1.73064
H          7.67164         2.54015         2.17771
O         -7.62714        -0.61764        -1.43178
H         -6.91384         0.05205        -1.33347
O         -4.86896        -6.42236        -2.16699
O         -7.23787        -5.87357         1.10230
O         -0.03218        -7.08821        -1.69366
O          4.99754        -6.58620        -1.39998
O          1.87018        -0.92324        -0.25879
O         -6.11463         5.49601         2.57919
O         -2.96414        -4.62589        -1.13658
O         -3.57829        -8.75018        -2.99425
H         -4.16541        -7.95596        -3.10026
O          7.56347        -3.41162         2.27139
O         -3.46645        -8.38808         0.62231
H         -3.62545        -7.67004         1.28762
O          3.50852         5.97489         1.33058
O          2.39392         2.19543        -0.84735
H          2.29097         2.91714        -1.50189
O         -1.67571         0.50473        -0.33267
H         -0.87140         0.22078        -0.81861
O          6.42436         8.26500        -0.17262
H          6.70384         7.54350         0.43004
O         -1.10690         4.05169         2.70777
H         -1.30311         3.28408         3.29729
O         -0.04192        11.24550        -0.60476
H          0.12891        11.23353         0.36227
O         -2.23485       -10.94048        -2.33380
H         -2.41120       -10.45393        -3.17013
O         -0.21274         6.92316         1.66970
O          0.26187         3.13213        -0.45484
O         -0.85709         9.55504         1.31957
H         -1.47381         9.17390         1.98006
O         -2.07990         1.59884         3.15853
H         -2.54597         0.92293         3.71130
O          2.78507         7.75524        -3.12369
H          2.62563         8.28617        -3.93098
O          3.88256        -1.15126         2.84198
H          3.68294        -0.32659         3.34591
O          7.19807        -4.81676         2.40956
H          7.48116        -4.99371         3.33962
O         -5.70219         2.88863         3.14579
H         -5.70598         3.81706         3.48175
O         -6.11709        -1.31287         2.66537
O          7.20037        -1.10990         2.20660
O         -2.38931        -6.61319        -2.39715
H         -3.25972        -6.15129        -2.57310
O          9.25146        -1.76285        -1.77488
H          9.17060        -0.86352        -2.17905
O         -5.61996         3.57358        -0.46456
H         -6.07002         4.25194        -1.02394
O         -1.41215         4.74687        -0.89010
H         -2.14785         4.11036        -1.07755
O          7.02283         2.22607        -1.68246
H          7.16351         2.93294        -2.34690
O         -6.92347         5.89243        -0.97926
H         -7.63664         6.27999        -1.53077
O         -1.61182         7.59793        -1.67277
H         -1.90666         6.66285        -1.79914
O         -8.62285        -1.33597         2.01797
H         -8.26412        -1.99827         2.65576
O         -1.61272        -6.06308         1.90731
H         -1.10787        -5.70124         2.67151
O        -10.77287        -3.28120        -1.55455
H        -11.29072        -3.22493        -0.72200
O          6.59956         3.95198         1.58045
H          5.74813         3.97032         2.09445
O        -10.61494        -1.57394         0.52298
H        -10.76072        -0.74438         1.02430
H         12.12640        -1.42619        -0.70559
H         12.17953         1.02638        -0.80558
H         10.73234         3.22626        -1.35246
H          9.43182         5.36357        -1.45602
H          8.02622         7.20721        -2.23473
H          6.57172         9.34358        -2.79128
H          4.34748        10.22578        -3.18430
H          1.91798        10.51215        -2.30342
H         -0.77907         9.93162        -2.01017
H         -2.74381        11.05649        -0.44805
H         -5.14783        11.22135         0.33743
H         -7.21512        10.08115         0.97670
H         -8.37630         7.90316         0.50816
H         -9.59575         5.64060         0.06742
H        -10.69000         3.54821        -0.43162
H        -11.36030         1.62273        -1.82382
H        -11.37788        -0.82403        -2.18028
H         -9.03729        -2.44838        -2.29338
H         -9.25366        -5.20394        -1.57907
H         -8.32181        -7.71494        -1.03230
H         -7.02459        -9.82317        -1.12943
H         -4.90416       -10.94988        -1.59509
H         -2.62248       -10.56741        -0.34158
H          0.05797       -11.01704        -1.16637
H          2.56361       -11.19777        -0.54161
H          5.08823       -11.18169        -0.56708
H          7.21473        -9.98938        -0.27806
H          8.51388        -7.81635         0.17215
H          9.77087        -5.71679         0.03194
H         10.90530        -3.60870        -0.35895
