         268
 CSIRO Nanostructure Databank - Neutral Graphene Oxide Data Set
C        -11.24773         0.66938         0.71262
C         -9.95110         1.44291         0.79663
C         -8.82582         0.76180         0.05042
C         -7.49916         1.42962         0.18186
C         -6.35097         0.76742        -0.14048
C         -5.04687         1.46623        -0.25932
C         -3.77331         0.71589        -0.22846
C         -2.55899         1.37272        -0.19344
C         -1.31537         0.60615        -0.25212
C         -0.03713         1.34441        -0.36572
C          1.23106         0.58505        -0.15559
C          2.55857         1.29684        -0.12573
C          3.78828         0.55650        -0.50793
C          4.91403         1.28772        -1.21315
C          6.28369         0.59615        -1.08441
C          7.56236         1.36980        -0.91093
C          8.75090         0.68682        -0.26525
C         10.06660         1.45711        -0.30488
C         11.21273         0.62976         0.24868
C         -9.98572         2.92578         0.45379
C         -8.82217         3.61803         0.40916
C         -7.53760         2.87684         0.53848
C         -6.24656         3.65335         0.45053
C         -5.00354         2.92281         0.04041
C         -3.71503         3.57131         0.49081
C         -2.48324         2.82698         0.00259
C         -1.30816         3.52060        -0.00282
C         -0.03196         2.83200        -0.30236
C          1.25333         3.54406        -0.00333
C          2.55620         2.81583        -0.05627
C          3.85339         3.59740        -0.28987
C          4.98507         2.80563        -0.97011
C          6.27080         3.57590        -0.86629
C          7.62912         2.90392        -0.82551
C          8.44854         3.35751         0.41821
C          9.84981         2.79831         0.36253
C         -8.78984         5.14604         0.43540
C         -7.45191         5.81479         0.10644
C         -6.25347         5.07979         0.11322
C         -4.98516         5.63089        -0.52326
C         -3.70572         5.02385         0.05597
C         -2.54307         5.71914         0.13807
C         -1.27615         4.96578         0.38466
C          0.02816         5.71953         0.39903
C          1.20112         5.02144        -0.22656
C          2.42903         5.74681        -0.65193
C          3.71679         4.98188        -1.03509
C          5.00414         5.74523        -0.67617
C          6.18509         5.00775        -0.45051
C          7.35018         5.63040         0.11371
C          8.45870         4.85772         0.49818
C         -7.43615         7.19331        -0.14657
C         -6.16963         7.93332        -0.17173
C         -4.91472         7.13710        -0.37845
C         -3.65960         7.81474        -0.85678
C         -2.42038         7.10978        -0.40399
C         -1.23377         7.93366        -0.01529
C          0.03207         7.23376         0.38028
C          1.40490         7.94601         0.34938
C          2.45588         7.24342        -0.54364
C          3.76882         7.95128        -0.65487
C          4.99323         7.13989        -0.45055
C          6.10925         7.75660         0.19888
C          7.26475         7.01983         0.44796
C         -6.07459         9.39721        -0.40503
C         -4.92371        10.01263        -0.72739
C         -3.65562         9.31166        -1.17940
C         -2.37185        10.00587        -0.73850
C         -1.24158         9.38579        -0.33422
C         -0.01188        10.16287         0.13408
C          1.31266         9.42294        -0.02868
C          2.45634        10.09277        -0.27386
C          3.82905         9.46867        -0.46635
C          4.86621         9.86459         0.55310
C          5.96019         9.10456         0.75018
C        -11.31605        -0.64992         0.46556
C        -10.22170        -1.47718        -0.18827
C         -8.92273        -0.68008        -0.31619
C         -7.64653        -1.46273        -0.26192
C         -6.35231        -0.72015        -0.21505
C         -5.11074        -1.39585        -0.77758
C         -3.83740        -0.79458        -0.13001
C         -2.57765        -1.46400        -0.65576
C         -1.29173        -0.76938        -0.35964
C         -0.03780        -1.50701        -0.45390
C          1.17146        -0.85507        -0.45911
C          2.46262        -1.54928        -0.59043
C          3.75670        -0.81811        -0.54033
C          4.98586        -1.61196        -0.57084
C          6.27828        -0.90657        -0.82183
C          7.53832        -1.57944        -0.37233
C          8.71893        -0.76499         0.05271
C          9.94695        -1.55953         0.49953
C         11.18983        -0.69338         0.46704
C         -9.96833        -2.85706         0.40044
C         -8.85876        -3.58591         0.07373
C         -7.73325        -2.92285        -0.69576
C         -6.41042        -3.66658        -0.47772
C         -5.12506        -2.91236        -0.53622
C         -3.92628        -3.71588        -1.03854
C         -2.61500        -2.91331        -1.01137
C         -1.37799        -3.70880        -0.69128
C         -0.10671        -2.99403        -0.36586
C          1.18869        -3.79684        -0.18113
C          2.46089        -3.03227        -0.49242
C          3.72917        -3.69973        -0.06881
C          4.98506        -2.94038        -0.20587
C          6.21318        -3.70244         0.14990
C          7.52363        -2.97864         0.16971
C          8.78343        -3.74552        -0.00384
C         10.03595        -2.90555        -0.25929
C         -8.65528        -4.95815         0.50526
C         -7.54658        -5.72911         0.21323
C         -6.45772        -5.18704        -0.70373
C         -5.05242        -5.93488        -0.58737
C         -3.83599        -5.04215        -0.23854
C         -2.57365        -5.87343        -0.45859
C         -1.41611        -5.17685        -1.12131
C         -0.05495        -5.89508        -1.04707
C          1.23871        -5.14532        -0.91772
C          2.62260        -5.85885        -0.94123
C          3.73555        -5.19551        -0.11846
C          5.03740        -5.91107        -0.06813
C          6.24337        -5.17136         0.08299
C          7.49832        -5.87355         0.11440
C          8.74572        -5.10634         0.00130
C         -7.42461        -7.06481         0.73012
C         -6.23427        -7.77416         0.75461
C         -5.00100        -7.16870         0.30306
C         -3.77244        -7.77289         0.50427
C         -2.53577        -7.15376         0.01177
C         -1.23821        -7.89565         0.09867
C          0.00014        -7.29182        -0.48638
C          1.21003        -8.14690        -0.83913
C          2.54994        -7.39353        -0.75526
C          3.76240        -8.05627        -0.18189
C          5.00032        -7.28115         0.08743
C          6.23806        -8.03106         0.50420
C          7.49605        -7.26386         0.17727
C         -6.16527        -9.12324         1.29214
C         -4.98657        -9.77048         1.44277
C         -3.69913        -9.10551         1.15145
C         -2.43732        -9.92379         1.01251
C         -1.23142        -9.36215         0.34620
C         -0.08086       -10.08045         0.20954
C          1.21699        -9.47493        -0.10094
C          2.36168       -10.10074         0.28929
C          3.69574        -9.41365         0.49656
C          4.96856       -10.13446         0.06665
C          6.14231        -9.47711         0.05123
O         -5.25696         7.54515         0.96790
O          1.93407         3.21170         1.22866
O         -0.87029         7.73900         1.39544
O          1.94757         7.85273         1.63858
O          6.82164        -3.17282         1.42321
O          1.34971         5.40112        -1.62004
O          0.66761        -5.44393        -2.23554
O          7.15739         0.91386        -2.22353
O         -9.05310         0.35288        -1.34833
O          8.37593         0.23483         1.08960
O         -9.06873        -3.84020        -2.44572
H         -8.56593        -4.70134        -2.45012
O          5.59407         3.40572        -2.15258
O         -5.02969         2.51849        -1.35356
O          2.48133        -2.44639        -1.80570
O          7.16831        -1.58260        -1.77880
O         -2.82855         7.10450        -1.82180
O         -0.00027         2.15740        -1.60349
O         -5.69235        -3.32390         0.72893
O         -2.54909        -1.92176        -2.07241
O          3.55274        -4.51188         1.14219
O         -0.50634         5.15910         1.62553
O          3.49869        -8.08278        -1.63179
O         -6.94713        -1.27533         1.00033
O         -6.79201         3.25178         1.74742
O         -0.24429        -8.98643        -2.49783
H         -0.12450        -9.47894        -3.34588
O          1.10002        -8.44242        -2.29432
O          8.34101         3.37868        -1.99476
H          7.75842         3.19807        -2.76704
O          1.23573        -4.16421         1.20643
H          0.30885        -4.26763         1.52979
O          7.72964         2.87082         1.59784
H          8.17333         2.05791         1.92848
O          6.22459        -8.09119         1.99800
H          6.26119        -7.16630         2.32766
O        -10.72072        -1.71514        -1.53094
H        -10.36164        -1.00215        -2.10525
O          2.90904         7.73337        -1.84809
O         10.13613        -2.60922        -1.65083
H         10.07611        -3.43960        -2.16461
O         -3.70970         3.51271         1.93631
H         -2.96751         4.05984         2.27164
O         10.43963         1.71498        -1.68377
H          9.78891         2.36822        -2.05328
O         -9.54619         1.36553         2.19726
H        -10.20707         1.84692         2.73676
O         -6.91367        -5.40584        -2.06237
O         -1.04871        -3.43591         0.69816
O         -0.23838        -7.19038         0.95108
O         -5.12622        -1.12384        -2.18118
H         -4.32266        -1.53141        -2.58806
O         -2.72825        -9.24216         2.26102
O         -3.76577        -4.70102         1.15179
H         -3.74839        -5.52567         1.68131
O         -3.92446        -1.10906         1.27725
H         -3.12793        -0.77114         1.73625
O         -4.23718        -3.99407        -2.41829
H         -3.48023        -4.51323        -2.79268
O         -9.81783         5.68356        -0.39664
H         -9.66465         5.38534        -1.31648
O         -4.74335        -6.46911        -1.89933
H         -5.53064        -6.97138        -2.20256
O         -3.69140         9.42912        -2.63052
H         -3.15474         8.68370        -2.98596
O          0.03889        11.44185        -0.48848
H          0.17033        11.31727        -1.45039
O          4.51099         1.13736        -2.59771
H          5.11566         1.70110        -3.13287
O          1.94634         0.76737         1.10956
O          3.14567        -5.62555        -2.26716
H          2.53686        -6.04685        -2.91238
O         -8.02128        -2.88264        -2.15188
H         -6.27686        -4.92869        -2.64575
O          4.32953         9.99626        -1.73085
H          3.80695         9.55816        -2.43888
O          4.37212         3.87649         1.02985
H          3.61557         3.89591         1.66393
O          9.73745        -1.92718         1.88036
H          9.36719        -1.14114         2.33956
O          3.74041        -9.21969         1.93175
H          4.64765        -8.89637         2.17420
O          3.62171         4.75173        -2.44181
H          3.20095         5.53787        -2.85117
O         -1.78358        -5.15462        -2.53343
H         -0.95143        -5.03330        -3.05040
O         -5.03718         5.31677        -1.93515
H         -4.95045         4.34287        -2.05403
H         12.11766        -1.18837         0.79741
H         12.17249         1.16358         0.33576
H         10.68594         3.51665         0.31310
H          9.27463         5.34594         1.05416
H          8.10931         7.49423         0.96929
H          6.75908         9.45268         1.42277
H          4.78010        10.84894         1.03537
H          2.40445        11.17874        -0.45904
H         -0.15006        10.34102         1.23543
H         -2.34244        11.09877        -0.87967
H         -4.92098        11.10868        -0.83165
H         -6.97432         9.99908        -0.20207
H         -8.38680         7.73588        -0.25471
H         -9.04685         5.44914         1.48812
H        -10.94823         3.45881         0.39551
H        -12.15186         1.19265         1.06707
H        -12.29687        -1.14735         0.53807
H        -10.77735        -3.33296         0.97757
H         -9.44184        -5.40224         1.13743
H         -8.31633        -7.51945         1.18999
H         -7.10779        -9.61776         1.57008
H         -4.95538       -10.78509         1.86525
H         -2.51087       -11.03277         1.07397
H         -0.07780       -11.14094         0.51028
H          2.26159       -11.07958         0.78791
H          4.92286       -11.19442        -0.22784
H          7.06774        -9.99550        -0.24407
H          8.45468        -7.80445         0.20757
H          9.68056        -5.67995        -0.10531
H         10.94609        -3.47534         0.08334
