         344
 CSIRO Nanostructure Databank - Neutral Graphene Oxide Data Set
C          1.32316         3.45163         1.18715
C          0.09725         4.11138         1.26104
C          1.19623         6.27441         0.95790
C          0.02865         5.49988         1.14600
C          1.15535         7.72093         0.88598
C         -0.05648         8.45559         0.89641
C          1.15727        10.57907         0.86539
C         -0.05631         9.83564         0.84144
C          1.16906        12.03456         0.80523
C         -0.01966        12.77377         0.73024
C          1.19203        14.88891         0.50343
C         -0.01546        14.15785         0.58353
C          1.18956        16.32675         0.29274
C         -0.01066        17.05815         0.14735
C          1.20193        19.15459        -0.17095
C         -0.00464        18.42493        -0.08397
C          1.21612        20.58712        -0.40320
C          0.04792        21.31557        -0.67859
C          1.23849        23.44385        -0.92868
C          0.07394        22.69495        -0.98341
C          1.28035        24.87709        -1.14028
C          0.11296        25.62678        -1.42821
C          1.36156        27.71476        -1.34705
C          0.15656        27.00596        -1.55495
C          1.42664        29.13972        -1.60432
C          3.77090         3.51501         0.89721
C          2.51395         4.18038         0.97779
C          3.65465         6.35410         0.63407
C          2.45467         5.60890         0.86276
C          3.62227         7.75615         0.63765
C          2.37601         8.45076         0.83062
C          3.66811        10.57077         1.21002
C          2.37074         9.86772         0.89485
C          3.63288        12.04979         0.91739
C          2.43109        12.74372         0.78504
C          3.65883        14.91147         0.55975
C          2.42361        14.18995         0.62386
C          3.66042        16.32745         0.34024
C          2.42416        17.03254         0.20997
C          3.67201        19.15096        -0.08639
C          2.43100        18.44893        -0.00473
C          3.66481        20.56378        -0.30825
C          2.47710        21.27415        -0.43106
C          3.74732        23.45945        -0.83819
C          2.48003        22.78685        -0.37479
C          3.77256        24.82867        -0.92186
C          2.51695        25.57343        -0.99618
C          3.77940        27.70122        -0.71284
C          2.53461        26.98346        -1.03391
C          3.80942        29.25487        -0.97713
C          2.58038        29.84905        -1.52277
C          6.19553         3.53431         0.53116
C          4.94751         4.20074         0.58995
C          6.02635         6.31897        -0.04803
C          4.90846         5.64937         0.38141
C          5.99430         7.81627        -0.28433
C          4.82529         8.51861         0.38075
C          6.09934        10.63888         0.39864
C          4.87437         9.87406         0.60979
C          6.12461        12.03508         0.55199
C          4.93287        12.78149         1.10740
C          6.11404        14.91552         0.59623
C          4.89688        14.22488         0.67755
C          6.12584        16.34220         0.45386
C          4.89628        17.04012         0.28222
C          6.16399        19.14701         0.02738
C          4.90906        18.45488         0.06817
C          6.21793        20.55513        -0.23574
C          4.95786        21.22119        -0.62983
C          6.32978        23.39362        -1.12902
C          4.98599        22.66454        -1.00196
C          6.23607        24.85172        -0.75558
C          5.05496        25.54511        -0.86118
C          6.25773        27.71169        -0.67345
C          5.05371        26.99280        -0.72644
C          6.28567        29.15031        -0.90613
C          5.10966        29.84668        -1.21076
C          8.59282         3.52903         0.10733
C          7.35982         4.17979         0.07957
C          8.51998         6.32316        -0.70537
C          7.20391         5.52309        -0.59703
C          8.52323         7.80051        -0.45688
C          7.30897         8.43866         0.19465
C          8.51960        10.64437        -0.04885
C          7.31085         9.94983         0.09707
C          8.54582        12.06294         0.09043
C          7.33513        12.75575         0.37804
C          8.59247        14.86348         0.51785
C          7.36016        14.18196         0.52451
C          8.60242        16.32097         0.92386
C          7.35929        17.05392         0.46821
C          8.66863        19.16613         0.00049
C          7.37434        18.42559         0.24001
C          8.60854        20.60564         0.50593
C          7.40183        21.30150        -0.10687
C          8.71000        23.37117        -0.32558
C          7.48154        22.68099        -0.42536
C          8.76235        24.83188        -0.72980
C          7.48291        25.52976        -0.25150
C          8.70854        27.69401        -0.43999
C          7.50097        27.01388        -0.51316
C          8.73804        29.13367        -0.61515
C          7.54068        29.81441        -0.90693
C         11.00918         3.43672        -0.21497
C          9.82591         4.13843        -0.26451
C         11.02529         6.33483        -0.15172
C          9.85634         5.56608        -0.78715
C         11.05595         7.82161        -0.20167
C          9.79131         8.55953        -0.33641
C         11.02899        10.67388        -0.36117
C          9.78020         9.92987        -0.22825
C         11.00672        12.07074        -0.26815
C          9.78879        12.77131         0.03877
C         11.08779        14.85333         0.59103
C          9.79753        14.16358         0.33086
C         11.11833        16.32848         0.66594
C          9.89726        17.04320         0.61384
C         11.12802        19.15669         0.49808
C          9.90608        18.43423         0.45523
C         11.13651        20.59435         0.35559
C          9.92233        21.31729         0.24662
C         11.22088        23.40647        -0.33046
C          9.91860        22.69535        -0.02667
C         11.19033        24.88167        -0.01784
C          9.98962        25.56533        -0.22045
C         11.14782        27.69964         0.04322
C          9.94853        26.98184        -0.17846
C         11.14167        29.16598        -0.04131
C          9.95341        29.82805        -0.45607
C         13.52986         3.46259        -0.80309
C         12.32407         4.10708        -0.30548
C         13.55017         6.35741        -0.64171
C         12.35076         5.61937        -0.19085
C         13.51510         7.80229        -0.72948
C         12.31477         8.54419        -0.49043
C         13.44622        10.68588        -1.05959
C         12.24146         9.94113        -0.63101
C         13.47963        12.18679        -0.95415
C         12.18001        12.94063        -0.67770
C         13.60523        14.92358         0.05267
C         12.35627        14.14664         0.21716
C         13.60340        16.31090         0.40423
C         12.35508        17.01478         0.61841
C         13.57943        19.17610         0.73727
C         12.34809        18.44603         0.65303
C         13.60433        20.55246         0.59335
C         12.39443        21.29828         0.36084
C         13.63701        23.44494         0.47394
C         12.43547        22.69824         0.20021
C         13.62895        24.87285         0.57164
C         12.38505        25.58962         0.29850
C         13.63921        27.78622         0.34782
C         12.34666        27.00248         0.29128
C         13.40242        29.16885         0.99001
C         12.27110        29.88293         0.31454
C         15.95627         3.51012        -1.12762
C         14.71680         4.18882        -0.93762
C         15.95221         6.35191        -1.38249
C         14.70977         5.64320        -0.89445
C         15.97489         7.81407        -1.03404
C         14.75354         8.48915        -0.94785
C         16.04966        10.71161        -0.98811
C         14.74538         9.94728        -1.13961
C         15.98729        12.15604        -0.66916
C         14.78228        12.86427        -0.68392
C         16.06480        15.03225        -0.47215
C         14.77147        14.26492        -0.33459
C         16.06286        16.36357         0.24535
C         14.84132        16.99931         0.50490
C         16.10982        19.12695         1.22502
C         14.82917        18.40476         0.97377
C         16.06916        20.65608         1.29346
C         14.92955        21.25446         0.42906
C         16.03524        23.44228         0.97207
C         14.85067        22.74416         0.67254
C         16.00958        24.84811         1.20134
C         14.80281        25.57255         1.00501
C         15.58343        27.83230         1.80730
C         14.71906        27.03703         1.11053
C         15.78328        29.25857         1.54239
C         14.68777        29.95200         1.07992
C         18.42693         3.48305        -0.93571
C         17.19199         4.19760        -1.05380
C         18.42049         6.31911        -0.83099
C         17.21564         5.61833        -1.03591
C         18.44054         7.76092        -0.74084
C         17.22515         8.50630        -0.87481
C         18.45506        10.56644        -0.34396
C         17.25806         9.91708        -0.68373
C         18.46951        12.02523         0.07014
C         17.21750        12.81858        -0.26599
C         18.53051        14.85993         0.31993
C         17.26019        14.17653        -0.12348
C         18.50386        16.35839         0.14217
C         17.30749        17.02906         0.41118
C         18.50804        19.21945         0.30654
C         17.44843        18.41304         1.03575
C         18.43290        20.63158         0.26094
C         17.33451        21.32770         0.80726
C         18.49189        23.48860         0.55866
C         17.30849        22.73062         0.86838
C         18.46113        24.84176         0.74441
C         17.38550        25.34533         1.67403
C         18.47643        27.64532         1.43982
C         17.51396        26.80999         1.91529
C         18.33752        29.10768         1.48142
C         17.11164        29.80405         1.60406
C         19.61042         4.15952        -0.75891
C         20.85293         6.28842        -0.46969
C         19.63503         5.58228        -0.68020
C         20.86707         7.65885        -0.36715
C         19.66540         8.43245        -0.46907
C         20.89421        10.59831        -0.01335
C         19.66542         9.85169        -0.26874
C         20.94462        11.94117        -0.13419
C         19.70923        12.71287        -0.54766
C         20.88629        14.94858        -0.46530
C         19.76935        14.19313        -0.22594
C         20.89517        16.36909        -0.33921
C         19.72438        17.08596        -0.06888
C         20.75134        19.30311        -0.69626
C         19.65226        18.53662        -0.15022
C         20.69037        20.64522        -0.84953
C         19.45332        21.43915        -0.53522
C         20.66757        23.71262        -0.62221
C         19.76577        22.78064         0.15985
C         20.55113        25.04839        -0.59693
C         19.39155        25.78817         0.02718
C         20.76235        27.93865         0.39925
C         19.76335        26.97244         0.95800
C         20.64398        29.28696         0.59936
C         19.47996        29.87547         1.15551
O         12.59210         4.82242         0.99808
O         15.51856        10.35511        -2.31231
O         11.88707        14.09043         1.59155
O         10.89190         7.04289         1.10643
O          4.89649        21.64088        -2.07285
O         13.31160        11.53289        -2.26222
O         15.37261        18.55135         2.36331
O          8.38293         7.26997        -1.82751
O         16.48372        27.29293         2.73684
O          3.64337        28.67463         0.36081
O         20.45668        22.44758         1.38924
H         20.46878        23.24789         1.95638
O         12.96391        28.88777         2.36174
H         12.76172        29.74384         2.79347
O         18.58440        14.69567         1.79941
H         19.29940        15.28087         2.13188
O         18.61077        11.98984         1.50880
H         18.57948        12.92205         1.84604
O         18.62375        26.37806        -1.06061
H         18.41419        25.66607        -1.70106
O          8.80532        19.27205        -1.45263
H          8.79876        18.36591        -1.82624
O         15.33086        21.04449        -0.96220
H         14.66669        21.48466        -1.53372
O          5.87166         8.04609        -1.71444
H          5.00515         7.68777        -1.99933
O         20.39314        26.34733         2.11675
H         20.61932        27.05552         2.75545
O          6.82877         5.21093        -1.97291
H          6.88894         6.06533        -2.46203
O         11.78181        13.54346        -1.94950
H         11.98879        12.87428        -2.64452
O          5.17025        12.83529         2.56725
H          4.51544        13.45821         2.94756
O         14.07095        28.00535        -1.01906
H         14.13023        27.13331        -1.46152
O          2.43348        23.07935         1.08597
H          1.56991        22.74919         1.41566
O         16.20805        15.36569        -1.90554
H         16.16080        14.52103        -2.40388
O          8.83527        24.91467        -2.16964
H          9.64617        24.42373        -2.43975
O          7.47211        25.34547         1.20559
H          6.71316        25.85254         1.56493
O         19.55694        12.59655        -1.99182
H         20.33122        13.02316        -2.41418
O         15.85062        21.05038         2.65653
H         15.43273        20.28290         3.11341
O         17.97991        18.17820         2.37148
H         17.20703        17.95693         2.94013
O         15.88348         6.30910        -2.86695
H         15.25543         7.00767        -3.15133
O         18.82418        21.79405        -1.80439
H         18.51933        20.96624        -2.23181
O          6.67011        23.39053        -2.54391
H          6.27934        22.56438        -2.91703
O          8.51565        16.32102         2.38981
H          9.28349        15.81518         2.73200
O         11.32794        23.34543        -1.82080
H         11.21761        22.40332        -2.07543
O          3.82654        10.43082         2.67038
H          3.11655        10.95613         3.09540
O          7.39728         8.11107         1.60697
H          8.15533         8.59620         1.99581
O          8.40773        20.55959         1.94192
H          8.40325        21.47964         2.27886
O         10.22083         5.46602        -2.18820
H          9.70094         6.15188        -2.66964
O         17.61613        24.68548         2.95971
H         16.98236        25.07791         3.59796
H          1.36992         2.35752         1.28384
H         -0.82495         3.53439         1.41758
H         -0.95175         5.98944         1.21968
H         -1.02001         7.92861         0.91986
H         -1.02172        10.35797         0.81217
H         -0.99054        12.26261         0.77149
H         -0.98152        14.67427         0.51578
H         -0.98076        16.54780         0.20939
H         -0.96861        18.93979        -0.19329
H         -0.92328        20.80474        -0.71567
H         -0.87550        23.16959        -1.26991
H         -0.84863        25.11252        -1.56091
H         -0.75806        27.56285        -1.80470
H          0.51302        29.62744        -1.97646
H          3.80439         2.42496         1.04445
H          2.61541        30.89524        -1.86186
H          6.25863         2.48833         0.86853
H          5.16947        30.85758        -1.64094
H          8.63275         2.50321         0.50685
H          7.56636        30.90294        -1.06556
H         10.99492         2.36974         0.05866
H          9.96523        30.92321        -0.56542
H         13.52126         2.38217        -1.01219
H         12.26229        30.98351         0.27051
H         15.95658         2.41027        -1.16621
H         14.74514        31.00936         0.78235
H         18.41305         2.38408        -0.97254
H         17.17738        30.89897         1.48576
H         20.55628         3.60667        -0.66242
H         21.78923         5.71913        -0.37548
H         21.82514         8.16527        -0.18886
H         21.80969        10.04997         0.25178
H         21.89302        12.47542         0.03004
H         21.81149        14.46158        -0.81243
H         21.83963        16.89351        -0.53335
H         21.66871        18.77571        -0.99401
H         21.54777        21.17935        -1.28508
H         21.52868        23.26633        -1.14497
H         21.28060        25.65864        -1.15380
H         21.67177        27.53291        -0.06728
H         21.45001        29.95507         0.26027
H         19.41349        30.97236         1.19922
