         277
 CSIRO Nanostructure Databank - Neutral Graphene Oxide Data Set
C         30.24516        31.74784         0.55457
C         30.39882        32.95390         0.27405
C         30.36909        36.13041        -0.07952
C         30.30847        37.28457        -0.51388
C         30.32638        40.39780        -0.21503
C         30.24982        41.62400        -0.18138
C         32.68122        28.96810         0.53811
C         31.57683        29.49333         0.74754
C         32.65048        31.53206        -0.11503
C         31.50745        31.01556         0.95230
C         32.74206        33.07694        -0.36950
C         31.45429        33.85479         0.00061
C         32.72955        35.99439        -0.04833
C         31.47210        35.21675         0.01183
C         32.73601        37.33097        -0.33144
C         31.49972        38.17347        -0.78509
C         32.71126        40.35568        -0.18851
C         31.45144        39.45737         0.04241
C         32.69961        41.70838        -0.07236
C         31.37158        42.54720         0.16148
C         32.69175        44.34392        -0.66175
C         31.55522        43.83607        -0.61823
C         35.40292        27.36925        -0.04796
C         35.19753        28.72629         0.18660
C         34.01160        29.47945         0.30642
C         35.23555        31.64640         0.21566
C         34.00261        30.88859         0.20851
C         35.25594        33.02225         0.12591
C         33.96622        33.75267         0.24142
C         35.29677        35.94694         0.23024
C         33.97806        35.24946         0.30531
C         35.22142        37.46401         0.39731
C         34.01115        38.08912        -0.30781
C         35.28238        40.30956         0.07590
C         33.99142        39.59004        -0.32491
C         35.23496        41.75576        -0.46462
C         34.00333        42.48509         0.10128
C         35.21633        44.60283        -0.34112
C         34.02863        43.93228        -0.44846
C         35.48645        46.01332        -0.42727
C         37.79664        27.25881        -0.25510
C         36.49437        26.75453        -0.25761
C         37.78100        28.74898        -0.08743
C         36.50982        29.41998         0.37390
C         37.81554        31.64720         0.34742
C         36.52238        30.93569         0.44923
C         37.82982        33.04765         0.21922
C         36.53316        33.77807        -0.18479
C         37.81351        35.99882         0.11705
C         36.47289        35.26813         0.17498
C         37.73487        37.47053         0.63114
C         36.52408        38.14071         0.05942
C         37.76027        40.36182        -0.02549
C         36.54574        39.56474        -0.43917
C         37.75451        41.73633         0.00595
C         36.51901        42.50848        -0.13046
C         37.68798        44.62546         0.41229
C         36.46918        43.87896        -0.02017
C         37.76978        46.13506         0.36295
C         36.49055        46.63371        -0.03735
C         40.20091        24.45137        -0.75820
C         39.21638        25.19097        -0.60641
C         40.27042        27.27959        -0.30178
C         39.02143        26.60155        -0.41323
C         40.35808        28.68418        -0.07807
C         39.08865        29.47785         0.02832
C         40.36304        31.57828         0.64057
C         39.04333        30.81971         0.78206
C         40.32724        33.05982         0.35963
C         39.02969        33.79707         0.29598
C         40.20607        36.15342         1.16703
C         38.88839        35.19427         0.90790
C         40.21218        37.49693         0.43008
C         39.03328        38.16981         0.32007
C         40.22307        40.29588        -0.42782
C         39.04910        39.68080         0.34494
C         40.23608        41.80391        -0.18067
C         39.05093        42.44548         0.07203
C         40.24177        44.74356         0.19174
C         38.99699        43.89423         0.42050
C         40.25124        46.05928         1.00616
C         38.90802        46.80588         0.71645
C         40.21597        48.89484         0.71948
C         39.17871        48.19934         0.70189
C         42.83468        24.45600        -0.77923
C         41.53185        24.94049        -0.23167
C         42.81693        27.26795        -0.69955
C         41.52079        26.50180        -0.57936
C         42.85052        28.68623        -0.25198
C         41.60064        29.35135        -0.03424
C         42.85525        31.53236        -0.00473
C         41.66904        30.74613         0.55840
C         42.86264        33.01578         0.12816
C         41.54748        33.57726        -0.36359
C         42.70454        35.93730         0.32520
C         41.57682        35.46601         1.21193
C         42.71060        37.40956        -0.00662
C         41.47959        38.22459         0.20843
C         42.79323        40.28259        -0.30171
C         41.51151        39.56302        -0.09002
C         42.82350        41.80270        -0.30777
C         41.51399        42.61645        -0.41275
C         42.76931        44.63249         0.58972
C         41.45530        43.83173         0.53306
C         42.67722        46.07227         0.11734
C         41.49853        46.88231         0.58528
C         42.82315        48.85560         0.34693
C         41.50742        48.27183         0.51041
C         43.88582        25.09896        -0.80326
C         45.39598        27.22089        -0.39817
C         44.14994        26.54109        -0.81780
C         45.35736        28.65365         0.09187
C         44.09453        29.32061         0.01178
C         45.38147        31.50004         0.43841
C         44.15361        30.79662         0.03057
C         45.31998        32.99210         0.74551
C         44.00796        33.69242         0.38200
C         45.29579        35.90101         0.22963
C         44.00995        35.18417         0.47330
C         45.30401        37.34010        -0.17644
C         44.02532        38.11143        -0.24701
C         45.26598        40.28288        -0.02878
C         44.07500        39.58806        -0.07872
C         45.28388        41.73279         0.15503
C         44.09465        42.43830         0.14584
C         45.35280        44.67300         0.38506
C         44.06114        43.88383         0.51964
C         45.15763        46.05580        -0.15568
C         44.39338        46.93976         0.70796
C         43.89881        48.23570         0.27049
C         47.60425        27.14296         0.54842
C         46.65086        26.58759         0.00703
C         47.79206        28.57460         0.77220
C         46.50979        29.33378         0.52385
C         47.86977        31.52496         1.03269
C         46.53785        30.78595         0.68733
C         47.80306        33.01663         0.64058
C         46.56019        33.63866         0.03655
C         47.72097        35.90698         0.20883
C         46.58071        35.16208         0.12265
C         47.74687        37.36490         0.10934
C         46.57509        38.07762        -0.01267
C         47.88217        40.24346         0.06845
C         46.55787        39.54402        -0.15977
C         47.89506        41.69860         0.36717
C         46.57290        42.38422         0.71551
C         47.92518        44.55745         0.08295
C         46.63701        43.92039         0.47750
C         45.31309        46.54221        -2.74627
C         45.22476        46.29677        -1.51464
C         50.30881        28.68937         0.01091
C         49.07669        29.27918         0.54126
C         50.55929        31.27578         0.30671
C         49.01960        30.79905         0.16956
C         50.75955        32.76166         0.44027
C         48.85465        33.82059         0.88621
C         50.25787        35.85863         0.05843
C         48.99380        35.30036         0.73113
C         50.26778        37.22601        -0.03663
C         49.04510        38.03029         0.14590
C         50.37056        40.10256         0.52328
C         49.08735        39.40877         0.26389
C         50.39147        41.65746         0.55882
C         49.08495        42.38622         0.40344
C         50.42085        44.33068        -0.02647
C         49.09265        43.84749         0.22255
C         51.35646        29.13331        -0.47458
C         52.69081        31.44507        -0.91912
C         51.46089        30.58471        -0.87882
C         52.50156        32.68164        -1.02028
C         51.62032        33.55185        -0.26757
C         52.65354        35.89645        -0.19567
C         51.46865        35.02882        -0.54116
C         52.68003        37.12302        -0.27907
C         51.50545        38.02612        -0.51754
C         52.66937        40.21967         0.19428
C         51.60540        39.37262         0.13301
C         52.79979        41.49669         0.33045
C         51.71684        42.34782         0.28453
C         51.51253        43.74543         0.13318
O         42.92086        41.04702        -1.56841
O         43.47037        44.30417         1.81444
O         41.43871        34.18504        -1.41179
O         47.33691        40.03007        -1.30845
O         44.68123        37.64082        -1.47211
O         34.18778        38.81837        -1.56813
O         33.79836        34.42065         1.52332
O         44.76922        35.71359         1.62018
O         40.07796        36.58666         2.54676
O         45.03192        27.10924        -1.80361
O         46.08169        44.65111         1.66249
O         50.41170        40.84346         1.77542
O         40.56115        32.55201         1.72132
O         48.63124        28.98352         1.88712
O         43.45746        31.20149        -1.27646
O         50.00914        33.28916         1.49675
O         42.39429        36.38470        -1.00803
O         36.50726        30.07812         1.66513
O         42.01293        26.92053        -1.88182
O         38.35624        29.47673        -1.23782
O         35.43183        40.32191         1.50062
H         34.90538        41.07169         1.87381
O         48.49425        30.96689        -1.14800
H         49.14915        30.65556        -1.82103
O         35.06880        41.74166        -1.88833
H         35.76219        41.14180        -2.26361
O         45.49626        33.12543         2.16799
H         45.36242        34.07647         2.39965
O         42.03865        30.48668         1.94478
H         41.81564        31.29281         2.46616
O         46.50877        33.31382        -1.37000
H         46.98129        32.46148        -1.51393
O         41.22017        43.25823         1.82241
H         41.06272        43.99094         2.46415
O         51.28756        35.10939        -1.95010
H         51.30662        36.05920        -2.21482
O         34.15335        42.64135         1.53611
H         33.27962        42.93213         1.89398
O         36.60733        33.77744        -1.64783
H         37.36061        34.36838        -1.89404
O         36.61404        39.56437        -1.90386
H         35.81291        39.07194        -2.22085
O         41.83905        34.73492         2.15817
H         40.38440        35.83315         3.10444
O         31.33580        42.86935         1.54123
H         30.55354        43.43423         1.71565
O         41.49509        43.08931        -1.77928
H         41.85589        42.36752        -2.34724
O         51.02980        30.73698         1.54700
H         50.62620        31.26328         2.27212
O         40.21115        45.21600        -1.16291
H         40.48572        44.49130        -1.77681
O         40.35922        45.76747         2.40163
H         40.32882        46.60704         2.90679
O         38.34009        34.91154         2.19842
H         38.06269        35.77705         2.59417
O         41.54210        24.83347         1.16656
H         41.53565        23.88909         1.42501
O         38.24462        36.03490        -1.26262
H         37.77523        36.76418        -1.72244
O         48.15579        31.48596         2.41964
H         48.18883        30.54106         2.70529
O         37.59734        37.46083         2.10195
H         38.07362        38.26055         2.43170
O         31.59879        38.52049        -2.14227
H         31.64877        37.70884        -2.68626
O         34.91403        37.68185         1.80905
H         35.75616        37.55315         2.31061
O         32.22420        30.99964        -1.38497
H         31.96823        30.05753        -1.27325
O         46.44962        42.16588         2.14442
H         46.09772        42.99569         2.54615
O         42.75160        46.07675        -1.25319
H         42.47909        46.94212        -1.62431
O         39.25196        39.94690         1.77315
H         39.13634        40.91009         1.93258
O         40.01344        40.07970        -1.84196
H         40.86501        40.23418        -2.30574
O         51.35222        38.17230        -1.93965
H         52.06636        38.75503        -2.27468
O         50.84658        30.69884        -2.14928
H         51.48605        30.42175        -2.83785
O         31.87891        31.32847         2.24414
H         31.15827        31.11046         2.86882
O         47.99326        45.86105        -0.23650
H         47.11085        46.27091        -0.36456
O         44.52400        46.85401         2.05810
H         45.00865        46.03706         2.31629
O         31.46617        39.07922         1.40783
H         31.29778        39.86573         1.96636
O         38.93556        30.47547         2.17494
H         39.03889        31.30390         2.69241
O         38.27964        44.12500         1.66791
O         49.06636        35.79189         2.11020
H         49.68985        35.20712         2.59460
O         32.92464        33.30395        -1.77657
H         32.48982        32.56039        -2.25722
