         349
 CSIRO Nanostructure Databank - Neutral Graphene Oxide Data Set
C          1.83007         3.42180         2.40186
C          0.69026         4.04226         2.83759
C          1.36077         6.18045         1.85325
C          0.43829         5.41272         2.52561
C          1.02356         7.56885         1.30860
C         -0.08094         8.25800         2.05571
C          0.83844        10.41876         1.41345
C         -0.17445         9.61368         2.02799
C          0.40110        11.70060         0.87477
C          0.67807        12.15571        -0.39566
C          1.18710        14.51281        -0.19233
C          0.40765        13.55090        -0.77274
C          1.23721        15.92452        -0.60027
C          0.18080        16.61020        -1.15030
C          1.36397        18.78086        -1.27097
C          0.23992        18.01898        -1.45309
C          1.35340        20.27950        -1.23763
C          0.31697        21.03836        -1.96932
C          1.35863        23.26292        -1.51361
C          0.30892        22.38381        -2.07237
C          1.48545        24.67385        -1.96203
C          0.34109        25.37691        -2.40211
C          1.56215        27.47639        -2.31717
C          0.37020        26.75306        -2.54934
C          1.56549        28.90550        -2.32380
C          3.95927         3.50474         1.18261
C          2.82432         4.15287         1.67181
C          3.59276         6.32823         0.81188
C          2.61674         5.57857         1.45161
C          3.43079         7.80689         0.50676
C          2.24118         8.45216         1.16568
C          3.40833        10.63620         1.28734
C          2.16207         9.84502         1.23719
C          3.48658        12.01175         1.60076
C          2.29336        12.93233         1.76234
C          3.62675        14.64846         0.67590
C          2.31462        13.96130         0.64239
C          3.74096        15.90640        -0.06762
C          2.50411        16.66954        -0.37351
C          3.87868        18.87659        -0.86889
C          2.58099        18.13807        -0.71718
C          3.91841        20.35057        -0.50665
C          2.58361        21.05261        -0.79320
C          3.88320        23.27343        -1.13851
C          2.61131        22.55843        -0.97267
C          3.91446        24.63573        -1.43234
C          2.70835        25.36473        -1.78208
C          4.00917        27.49618        -1.92781
C          2.77064        26.77710        -2.02101
C          3.97207        28.93630        -1.83721
C          2.70494        29.59262        -2.00663
C          6.16679         3.62665         0.04928
C          4.98388         4.21285         0.50183
C          6.05637         6.49724         0.06027
C          4.78492         5.65655         0.28843
C          5.97997         7.95260         0.37503
C          4.70089         8.57556         0.75967
C          5.89419        10.62138         1.42576
C          4.66440         9.93345         1.15255
C          5.95916        12.01730         1.60933
C          4.72671        12.70642         1.64373
C          6.05657        14.93341         1.38662
C          4.69656        14.21919         1.67999
C          6.18777        16.04768         0.37543
C          4.99040        16.23984        -0.47148
C          6.42100        18.83316        -1.01301
C          5.05797        18.27769        -1.14727
C          6.43860        20.31016        -1.15620
C          5.10129        21.01433        -1.21223
C          6.42492        23.18602        -1.22025
C          5.12447        22.49728        -1.30051
C          6.42027        24.61036        -1.30699
C          5.18682        25.31738        -1.49264
C          6.49458        27.30324        -1.90062
C          5.21470        26.71449        -1.77087
C          6.40549        29.40224        -1.58571
C          5.05340        29.76858        -1.42380
C          8.54484         3.81423        -0.66296
C          7.33762         4.40208        -0.22773
C          8.56881         6.45601         0.39735
C          7.34254         5.80277         0.07944
C          8.49601         7.79576         0.98285
C          7.26028         8.60180         0.79611
C          8.38436        10.57369         1.73783
C          7.10689         9.79552         1.71221
C          8.42097        12.00210         1.66620
C          7.24509        12.72358         1.66589
C          8.58742        14.86464         1.26041
C          7.32390        14.23664         1.85029
C          8.66573        16.15208         0.70640
C          7.48662        16.78480         0.14260
C          8.77746        18.86063        -0.26454
C          7.54736        18.10455        -0.34730
C          8.83653        20.29747        -0.55606
C          7.66812        21.05097        -0.84172
C          8.88951        23.20089        -1.06555
C          7.61953        22.46367        -1.01766
C          8.87796        24.66264        -0.94679
C          7.65394        25.33329        -1.15595
C          8.83652        27.53550        -1.06575
C          7.67285        26.75063        -1.35605
C          8.77469        28.97824        -0.90174
C          7.55853        29.75704        -0.88965
C         10.86921         4.07218        -1.42427
C          9.73288         4.57253        -0.71733
C         11.08005         6.48379         0.06672
C          9.78529         5.83867        -0.01914
C         11.41309         7.41368         1.02984
C          9.49868         8.39414         1.72149
C         10.78405        10.55279         2.15528
C          9.53542         9.83618         1.94292
C         10.97211        11.86566         1.81703
C          9.75687        12.62079         1.29177
C         11.15496        14.78049         1.42841
C          9.82699        14.11449         1.57624
C         11.19240        16.18346         0.95303
C          9.94516        16.84755         0.60191
C         11.29296        18.84343        -0.13016
C          9.95596        18.18982         0.16241
C         11.27635        20.35761        -0.06592
C         10.08708        21.00189        -0.40221
C         11.30230        23.23849        -0.25881
C         10.15815        22.44245        -0.72311
C         11.26848        24.64737        -0.38546
C         10.08410        25.37397        -0.73362
C         11.18808        27.56699        -0.34843
C         10.04772        26.83482        -0.72479
C         11.17340        28.99909        -0.32729
C          9.95178        29.66557        -0.55263
C         13.07376         4.42992        -2.48390
C         12.02902         4.83629        -1.63993
C         13.48433         6.60615        -0.66603
C         12.06863         6.24155        -1.06654
C         13.65430         7.87058         0.07693
C         12.58152         8.26154         0.94387
C         13.72139        10.42383         1.36360
C         12.70019         9.46611         1.62857
C         13.61749        11.76537         1.67793
C         12.31775        12.49057         1.59523
C         13.70986        14.69938         1.33670
C         12.40957        13.95711         1.27603
C         13.68567        16.09419         1.11526
C         12.43949        16.79228         0.85047
C         13.78775        18.90552         0.28978
C         12.44669        18.29713         0.72444
C         13.71430        20.41019         0.49724
C         12.48058        21.09916         0.19299
C         13.61665        23.27832         0.61777
C         12.45401        22.52908         0.19274
C         13.57633        24.67037         0.64014
C         12.49894        25.39037        -0.05767
C         13.42128        27.70003         0.83967
C         12.46602        26.89685        -0.03962
C         13.59279        29.09136         0.23207
C         12.39045        29.71745        -0.18920
C         15.09060         5.18567        -3.74913
C         14.27227         5.22146        -2.65030
C         15.95778         6.80778        -1.44621
C         14.60648         6.11678        -1.51067
C         15.94641         8.14722        -0.73877
C         14.82881         8.59367         0.02093
C         16.22437        10.26338         1.30658
C         14.92094        10.00242         0.55472
C         16.21264        11.74758         1.78390
C         14.87782        12.54680         2.00892
C         16.15522        14.70441         1.61888
C         14.93779        14.00023         1.53670
C         16.15539        16.14632         1.49230
C         14.93031        16.83287         1.17835
C         16.14340        18.96718         1.14628
C         14.95510        18.23302         0.97754
C         16.12312        20.40885         1.07282
C         14.86115        21.10714         0.84553
C         16.02507        23.25519         1.08519
C         14.84521        22.55834         0.92203
C         16.01971        24.70899         1.25443
C         14.70811        25.45167         1.14676
C         16.04250        27.71655         0.99973
C         14.73797        26.97472         1.09011
C         16.06833        29.24124         0.80694
C         14.79977        29.75373         0.18124
C         17.14932         5.99972        -5.03760
C         16.08625         6.29496        -4.00848
C         17.79999         7.69495        -2.81243
C         16.66749         6.93024        -2.76673
C         18.09553         8.69549        -1.78492
C         17.09126         8.93031        -0.77986
C         18.63106        10.67914         0.25847
C         17.36772         9.88147         0.33324
C         18.82386        11.79434         1.29984
C         17.49432        12.51492         1.71675
C         18.61808        14.71767         1.86384
C         17.44820        14.01670         1.73487
C         18.56272        16.17796         2.26082
C         17.35638        16.88410         1.65535
C         18.57732        19.05888         1.54217
C         17.36297        18.29268         1.49297
C         18.56415        20.44183         1.33150
C         17.31124        21.11978         1.22909
C         18.54455        23.32946         1.03801
C         17.30616        22.59750         1.50753
C         18.52030        24.66984         0.75429
C         17.24892        25.42587         0.78539
C         18.54116        27.60403         0.35169
C         17.25145        26.91019         0.58865
C         18.49770        29.01236         0.06584
C         17.29239        29.72843         0.09445
C         18.34648         6.60362        -5.02062
C         19.67572         8.61376        -4.17713
C         18.86570         7.39351        -3.84000
C         19.85351         9.58681        -3.25551
C         19.13299         9.62218        -1.98901
C         20.22555        11.75068        -1.27410
C         19.37273        10.69597        -1.03591
C         20.43978        12.80452        -0.31663
C         19.82181        12.83990         0.89282
C         21.14079        14.84544         1.56827
C         19.95636        13.97628         1.88886
C         21.12046        16.17028         1.72135
C         19.89571        16.92478         2.07336
C         21.07203        19.11187         1.27203
C         19.87820        18.39544         1.76800
C         21.02893        20.44353         1.04670
C         19.80175        21.20143         1.17544
C         21.00750        23.36788         0.85790
C         19.79028        22.58549         1.00431
C         20.98681        24.66656         0.49278
C         19.70576        25.34272         0.08597
C         20.90264        27.56226        -0.16931
C         19.72718        26.86914         0.18067
C         20.89247        28.94957        -0.38660
C         19.71183        29.66542        -0.31165
O         20.10119        17.88936         3.16088
O          2.36365        17.71412         0.68735
O          3.38082        13.57218        -0.31386
O         15.25946        25.05038         2.45085
O         16.93987        26.01883        -0.56053
O          4.87883        21.59044        -2.52014
O          1.56344        20.68885         0.17302
O          1.62602        13.01980         2.78134
O         18.60954         9.38613         0.95687
O          9.79430        22.71974        -2.12425
O          6.73006        19.44146        -2.32432
O         12.35532        13.02498         0.13181
O          5.89091        16.30826         1.84234
O         11.82116         9.77103         2.66731
O         10.58542         7.61320         2.15126
O          5.19178         6.10553        -1.05986
O          6.80051         8.77848        -0.56507
O          5.08613        16.97811        -1.65331
O         14.29042         5.47967        -0.20695
O          6.61241        28.47340        -2.63800
O          1.64465        23.18608        -0.08147
O         17.03485        11.90976         2.98195
O         10.54833        14.57705         2.76676
O         13.06744        26.21996        -1.17887
O         15.44345        27.43477         2.29905
O         15.25631         7.36707        -4.60414
H         15.86547         8.06533        -4.92631
O          3.13987         7.87928        -0.95060
H          3.86571         7.36806        -1.39613
O         12.24011        18.79708         2.07621
H         11.51531        18.28228         2.49026
O         18.28718        16.15422         3.69212
H         18.80259        16.89714         4.08803
O         16.82202         5.94019        -0.64557
H         16.25867         5.59192         0.08439
O         16.26733         9.42555         2.45938
H         16.86303         9.85637         3.11263
O          9.75947        12.50389        -0.16613
H         10.68410        12.69999        -0.46592
O          4.18207        20.49378         0.90602
H          3.35457        20.23767         1.37386
O         14.70754        12.68611         3.45109
H         15.61414        12.65766         3.84720
O         12.75522        27.84350         2.11474
H         13.44787        28.03692         2.78452
O         19.34127        11.16651         2.49374
H         19.16075        10.19595         2.40780
O          0.52468         7.33572        -0.05911
H          1.30518         7.40335        -0.66515
O          4.30004        14.62677         2.99836
H          4.48803        15.58938         3.07572
O         14.08000        18.67418        -1.11036
H         13.24048        18.74856        -1.62690
O         16.14139        29.86272         2.13561
H         15.81295        29.19586         2.78401
O         17.32902        22.71676         2.97525
H         16.47532        22.37792         3.31935
O         11.71913         7.15962        -2.14332
H         10.82138         6.92744        -2.46169
O         19.79449         6.48892        -3.14710
H         19.25900         5.88539        -2.58826
O         11.51957        18.49361        -1.53724
H         10.79674        18.89808        -2.06415
O         14.99383        10.89855        -0.59490
H         14.12386        10.90191        -1.04799
O          7.42847        14.42920         3.28818
H          7.29371        15.38625         3.46067
O         19.51968        25.08912        -1.34843
H         18.61213        25.41131        -1.56520
O          6.91644         9.21405         3.04981
H          6.84758         9.95279         3.69155
O         20.20027        13.51851         3.23288
H         19.73233        12.66049         3.36849
O         -0.53224        12.39636         1.59789
H         -0.38799        12.25400         2.55618
H          1.99796         2.35317         2.59851
H         -0.07010         3.47775         3.39490
H         -0.53434         5.82857         2.82056
H         -0.91098         7.67288         2.47388
H         -1.08372        10.11238         2.39774
H          1.22366        11.51603        -1.10600
H         -0.28314        13.79298        -1.59814
H         -0.77841        16.09588        -1.30770
H         -0.69013        18.49384        -1.79897
H         -0.46716        20.46306        -2.48367
H         -0.47367        22.85338        -2.68677
H         -0.60680        24.84194        -2.55032
H         -0.54770        27.29870        -2.81028
H          0.62628        29.44055        -2.52443
H          4.08170         2.42565         1.35855
H          2.68157        30.69018        -1.94178
H          6.26385         2.53081         0.06515
H          4.80632        30.73307        -0.95444
H          8.54506         2.77640        -1.02672
H          7.54625        30.65601        -0.25523
H         10.79786         3.07000        -1.87516
H          9.92125        30.76132        -0.46502
H         12.95130         3.51640        -3.08724
H         12.40306        30.79089        -0.43096
H         14.83998         4.52296        -4.59249
H         14.82034        30.77742        -0.22473
H         16.86135         5.37241        -5.89665
H         17.30341        30.78767        -0.20390
H         19.06537         6.40609        -5.83206
H         20.21668         8.64995        -5.13451
H         20.52886        10.42071        -3.49448
H         20.77771        11.82009        -2.22028
H         21.14527        13.60300        -0.59222
H         22.09070        14.33471         1.35176
H         22.05223        16.74039         1.60234
H         22.02896        18.58125         1.18395
H         21.94614        20.96112         0.73473
H         21.97194        22.89781         1.09752
H         21.93557        25.21657         0.42024
H         21.84122        27.01428        -0.32458
H         21.82629        29.45757        -0.66520
H         19.69424        30.74295        -0.52687
