         324
 CSIRO Nanostructure Databank - Neutral Graphene Oxide Data Set
C          1.10896         2.17001        -0.74471
C          1.01271         3.45171        -0.20644
C          2.26872         1.37821        -0.91184
C          2.09659         4.26626         0.28144
C          1.01542         6.46415        -0.34349
C          1.13270         7.79711        -0.59702
C          2.10703         5.68096         0.17157
C          2.48723         8.46527        -0.57025
C          1.86674        10.35787        -2.17555
C          2.00559        11.67214        -2.63279
C          2.43060         9.95491        -0.94787
C          2.88052        12.58911        -2.00767
C          2.06903        14.61530        -3.26832
C          2.11955        15.97582        -3.52889
C          3.02821        13.98491        -2.43090
C          3.17803        16.77264        -3.02727
C          3.27459        18.17953        -3.27091
C          3.43383         1.61021        -0.15590
C          3.29793         3.61123         0.71928
C          4.77053         1.32896        -0.45462
C          4.57168         4.18920         0.73634
C          3.26238         6.41574         0.72474
C          3.30618         7.93148         0.64070
C          4.57240         5.65116         0.98208
C          4.57965         8.58042         1.16901
C          3.14643        10.94952        -0.26691
C          3.55746        12.16670        -0.83575
C          4.74067        10.03139         0.96620
C          4.72729        12.90952        -0.29238
C          4.08876        14.75234        -1.90821
C          4.20931        16.13898        -2.26863
C          5.04960        14.18002        -0.98315
C          5.33286        16.88927        -1.86143
C          4.33494        18.91493        -2.79971
C          5.42052        18.28733        -2.09618
C          5.89092         2.07407         0.04300
C          5.78647         3.44214         0.55889
C          7.17511         1.49193        -0.17515
C          6.98547         4.21885         0.56299
C          5.83038         6.41967         1.06238
C          5.83859         7.78744         1.26520
C          7.07009         5.61623         1.10848
C          7.09859         8.52299         1.32220
C          5.90071        10.70369         0.76228
C          5.92395        12.16658         0.43800
C          7.10669        10.04446         1.41202
C          7.26813        12.75709         0.24426
C          6.23162        14.83971        -0.70398
C          6.54300        16.15101        -1.38840
C          7.36247        14.14413        -0.13445
C          7.50864        17.01980        -0.63652
C          6.55452        19.01914        -1.66090
C          7.61827        18.40138        -0.92384
C          8.36047         2.26553        -0.18564
C          8.10097         3.66078        -0.04388
C          9.70238         1.79093        -0.33274
C          9.94620         4.72273         0.39387
C          8.36928         6.37375         1.38641
C          8.29985         7.85055         1.42929
C          9.74121         5.80394         1.21372
C          9.56940         8.55212         1.60672
C          8.41210        10.66941         1.00642
C          8.43476        12.00763         0.49694
C          9.58957         9.98453         1.29568
C          9.75303        12.59791         0.18797
C          8.58332        14.83537        -0.05602
C          8.57449        16.31289         0.06113
C          9.83448        14.11225        -0.07917
C          9.83308        17.06998         0.37217
C          8.79098        19.13421        -0.54927
C          9.92781        18.51549         0.03700
C         10.93463         2.47668        -0.05018
C         11.01934         3.80762         0.47118
C         12.15675         1.72424        -0.13848
C         12.28721         4.46034         0.87898
C         10.88625         6.40097         1.94050
C         10.70491         7.87868         2.04261
C         12.27462         5.68223         1.79645
C         11.95757         8.63995         2.18010
C         10.84465        10.69288         1.20657
C         10.96307        11.96706         0.71734
C         12.04867        10.03605         1.72029
C         12.33164        12.59705         0.45424
C         11.13933        14.83582         0.09683
C         11.12627        16.32807         0.31069
C         12.33789        14.11508         0.54670
C         12.32974        16.98681         0.81708
C         11.12335        19.15307         0.34623
C         12.22839        18.46511         1.12714
C         13.42072         2.25985         0.15329
C         13.53281         3.67693         0.57597
C         14.61590         1.50593         0.07927
C         14.82418         4.15127         1.08856
C         13.65571         6.28327         1.99177
C         13.90965         7.51344         2.56663
C         14.86396         5.46313         1.72383
C         15.12957         8.28455         2.34781
C         13.19085        10.90055         2.04436
C         13.41803        12.04518         1.35700
C         15.11701         9.70697         2.35008
C         14.71210        12.72246         1.35595
C         13.50235        14.80969         0.82279
C         13.50796        16.26905         0.90360
C         14.75488        14.08170         1.06510
C         14.77584        16.97316         1.02786
C         13.56451        19.13585         0.96714
C         14.76397        18.44230         0.98420
C         15.89876         2.08371         0.29399
C         15.98269         3.45929         0.77375
C         17.09319         1.37608         0.07130
C         17.25997         4.13844         0.72949
C         16.24816         6.19575         1.64718
C         16.24103         7.65350         1.73837
C         17.33721         5.53034         0.94131
C         17.34536         8.39441         1.27408
C         16.09521        10.47370         1.69804
C         15.94909        11.90078         1.30493
C         17.29610         9.81367         1.30327
C         17.28022        12.67723         1.13748
C         16.00918        14.81770         1.07202
C         15.96806        16.27414         1.02327
C         17.21694        14.14195         1.21511
C         17.23560        17.01754         0.83336
C         16.00960        19.15098         0.99843
C         17.24737        18.48895         0.97659
C         18.36854         2.02221         0.08615
C         18.41492         3.44690         0.28426
C         19.58542         1.34259        -0.10540
C         19.61024         4.17250         0.00974
C         18.46439         6.27941         0.49328
C         18.49281         7.71948         0.67708
C         19.60160         5.60200         0.02260
C         19.61760         8.45381         0.35285
C         18.52441        10.56518         1.18761
C         18.54066        11.93705         1.35990
C         19.76344         9.78358         0.98127
C         19.81003        12.65735         1.57745
C         18.48219        14.87493         1.44646
C         18.54390        16.29094         0.99585
C         19.78898        14.15376         1.59359
C         19.78964        17.03840         1.23449
C         18.48524        19.14799         1.06295
C         19.74263        18.46320         1.15374
C         20.81563         2.04426        -0.24494
C         20.78698         3.47133        -0.34769
C         22.06471         1.35255        -0.17168
C         21.97170         4.21354        -0.79777
C         20.73598         6.36308        -0.54274
C         20.72387         7.87813        -0.42867
C         22.02737         5.69272        -0.78335
C         21.98082         8.69263        -0.76712
C         21.08257        10.48848         0.90276
C         21.11205        11.94671         1.25708
C         22.18388         9.93106         0.10246
C         22.27498        12.75409         0.82941
C         21.05632        14.87934         1.34208
C         21.02172        16.33955         1.36887
C         22.22296        14.18441         1.05289
C         22.22548        17.08113         1.33614
C         20.96098        19.18017         1.17884
C         22.20099        18.50516         1.20863
C         23.29095         2.03135        -0.23242
C         23.28588         3.42328        -0.71765
C         24.54007         1.44519         0.06217
C         24.50799         4.21972        -0.67233
C         23.22063         6.40925        -1.04106
C         23.26169         7.86911        -0.98399
C         24.44579         5.57796        -1.09896
C         24.41511         8.72342        -1.15758
C         23.33964        10.68672        -0.04735
C         23.39917        12.10998         0.31476
C         24.45773        10.07256        -0.70634
C         24.64611        12.84350         0.12565
C         23.51703        14.89723         1.06097
C         23.51879        16.39173         1.28259
C         24.62727        14.35465         0.19049
C         24.73539        17.12996         0.92002
C         23.43463        19.21321         1.10497
C         24.67371        18.55700         0.95229
C         25.76080         2.15783        -0.08987
C         25.73791         3.55282        -0.48617
C         27.00914         1.53998         0.12975
C         26.96778         4.24114        -0.70379
C         25.66775         6.07274        -1.57048
C         25.66831         8.21964        -1.67850
C         26.93910         5.56354        -1.23060
C         26.92214         8.67227        -1.33003
C         25.70295        10.85034        -0.84294
C         25.79063        12.21622        -0.27663
C         27.00748        10.11447        -1.08796
C         27.15973        12.78712         0.06904
C         25.95482        15.04325         0.43872
C         25.94942        16.41455         0.67866
C         27.22514        14.31760         0.18662
C         27.27148        17.15317         0.72424
C         25.88705        19.29898         0.85391
C         27.12182        18.66499         0.71898
C         28.23285         2.22210        -0.08414
C         28.21451         3.58687        -0.52244
C         29.49508         1.58481         0.07073
C         29.41687         4.27762        -0.84375
C         28.15331         6.32550        -1.39968
C         28.14255         7.82626        -1.27701
C         29.37391         5.65571        -1.25696
C         29.45457         8.57492        -1.23296
C         28.30876        10.79196        -0.91225
C         28.33632        12.17128        -0.67219
C         29.48307        10.06504        -1.23762
C         29.51492        12.90892        -0.99352
C         28.45317        15.11472        -0.27053
C         28.25109        16.66604        -0.38660
C         29.50549        14.35323        -1.03164
C         29.52198        17.51656        -0.31011
C         28.32109        19.38102         0.78032
C         29.54711        18.76872         0.38135
C         30.66871         2.26159        -0.21969
C         30.65858         3.59871        -0.68425
C         31.88953         4.28266        -1.00615
C         30.65140         6.32974        -1.61666
C         30.69178         7.85111        -1.68000
C         31.89821         5.56073        -1.45976
C         31.94330         8.63803        -1.65391
C         30.68950        10.74724        -1.41565
C         30.66387        12.18375        -1.46191
C         31.92172         9.98923        -1.57361
C         31.74647        12.88554        -2.05146
C         30.53317        14.95604        -1.76163
C         30.62498        17.25170        -1.12592
C         31.64046        14.23856        -2.27300
C         31.80861        18.00580        -1.09721
C         30.75010        19.51872         0.44525
C         31.88406        19.11553        -0.24854
O          4.94530        12.98272         1.14296
O         12.85955         8.20756         3.17095
O         14.08474        10.39478         3.00103
O         30.53236         7.06297        -2.90316
O         28.33596        14.64877         1.09963
O          9.90834        13.12173        -1.17299
O          3.35253         8.42433         1.99202
O          7.65041         5.68018         2.47254
O         19.06556        14.68276         2.77689
O         30.51031        16.29616        -2.14690
O         20.25724         7.21945        -1.66173
O         17.98690        16.51718        -0.34018
O         12.55579         8.88218         0.87131
O         25.60791         7.09799        -2.50385
O         22.58192         3.60255        -1.98587
O          3.62995         5.97168         2.06054
O         23.84316        15.40909         2.36812
O          9.00130         4.53641        -0.62119
O          8.91865        16.75228         1.45697
O         16.56399        12.12526        -0.01093
O          3.20073         2.26972         1.07385
O         28.87000         8.09716         0.02111
O         11.46988         5.57735         3.00661
O          3.52675        10.71279         1.04782
O         15.80453         5.50274         2.84733
O         26.28442        10.82912        -2.19999
O         20.73256         9.67824         2.09631
O         13.03472         4.70441        -0.38394
O         11.36382        15.75389        -1.03453
O         20.68713        12.15661         2.63791
O         27.62909        16.90844        -1.66525
H         28.32674        16.85223        -2.35423
O          6.99212        10.36680         2.83789
H          6.13163        10.02435         3.16256
O         21.70424         9.28709        -2.08384
H         21.25609         8.58477        -2.61227
O         27.33457        12.29485         1.44056
H         28.00101        12.88410         1.86553
O         12.65161        12.27014        -0.92197
H         11.90584        12.59972        -1.47636
O         24.20588        14.75005        -1.16425
H         24.81247        14.33482        -1.81382
O         11.85825        18.58444         2.55348
H         12.58447        18.19021         3.08160
O         27.90336        16.87843         1.99997
H         27.24176        17.03050         2.70575
O          3.27146         7.86144        -1.66142
H          2.80678         8.04244        -2.50618
O          7.28573        15.76920        -2.62295
H          7.44494        16.59261        -3.13304
H          0.19869         1.79962        -1.24401
H          0.03783         3.94890        -0.32716
H          2.26867         0.60715        -1.69603
H          0.04315         5.97243        -0.49621
H          0.26047         8.37211        -0.93997
H          1.27085         9.64534        -2.76641
H          1.47828        11.96723        -3.55019
H          1.23661        14.02387        -3.67453
H          1.33311        16.44573        -4.13707
H          2.47387        18.67262        -3.84154
H          4.98238         0.57707        -1.23045
H          4.38181        19.99769        -2.98660
H          7.22537         0.42039        -0.41879
H          6.61519        20.09439        -1.88378
H          9.80905         0.71701        -0.55970
H          8.83657        20.20612        -0.79345
H         12.09702         0.67167        -0.45634
H         11.24078        20.22507         0.12452
H         14.55756         0.45236        -0.23473
H         13.58704        20.23672         0.95348
H         17.04390         0.31105        -0.20185
H         15.98699        20.25014         1.04575
H         19.59387         0.24333        -0.14410
H         18.49569        20.24787         1.09586
H         22.05497         0.27724         0.05993
H         20.94595        20.27694         1.10263
H         24.57532         0.39271         0.38130
H         23.41338        20.31268         1.08964
H         27.03626         0.48478         0.44117
H         25.84818        20.39691         0.91508
H         29.53175         0.53954         0.40970
H         28.31450        20.45733         1.00854
H         31.63587         1.75165        -0.10009
H         32.83535         3.73248        -0.89227
H         32.84731         6.04196        -1.73373
H         32.90072         8.11369        -1.78230
H         32.87543        10.53513        -1.59109
H         32.62312        12.33972        -2.42306
H         32.41913        14.78862        -2.81644
H         32.64583        17.73055        -1.75087
H         30.75933        20.45487         1.02071
H         32.80825        19.70678        -0.19416
