         671
 CSIRO Nanostructure Databank - Neutral Graphene Oxide Data Set
C          6.37639        31.76301        -2.00289
C          6.44781        33.11774        -2.05788
C          8.62089        27.46107        -1.17902
C          8.56947        28.86301        -0.96805
C          7.40779        29.61523        -1.36363
C          8.50468        31.71654        -0.72853
C          7.42656        31.00039        -1.36989
C          8.54487        33.10424        -0.68982
C          7.52722        33.84742        -1.42498
C          8.60154        35.99744        -0.84497
C          7.62584        35.20427        -1.59552
C          8.94429        37.32619        -1.33161
C         11.07067        23.21799        -1.12945
C         11.04562        24.59773        -0.89822
C          9.83062        25.32655        -1.02734
C         11.00565        27.42881        -0.53330
C          9.79641        26.72532        -0.88811
C         11.03571        28.93126        -0.53749
C          9.67229        29.52894        -0.40220
C         10.70611        31.64631         0.64186
C          9.53171        30.93561        -0.02091
C         10.76303        33.10916         0.44253
C          9.66715        33.78578        -0.06650
C         10.86633        35.99262         0.41724
C          9.64211        35.26192         0.01047
C         10.79343        37.48462         0.33718
C          9.95885        38.07308        -0.75824
C         11.17465        40.22047        -0.63816
C         10.20809        39.37887        -1.23286
C         11.32299        41.57297        -1.07977
C         13.46947        18.85428        -0.60827
C         13.46746        20.28856        -0.68431
C         12.32818        21.00879        -0.97977
C         13.41385        23.17095        -0.36399
C         12.37782        22.49336        -1.23299
C         13.47401        24.64254        -0.33556
C         12.25533        25.33934        -0.57800
C         13.49882        27.53196        -0.30146
C         12.20312        26.74901        -0.40216
C         13.34782        28.91939         0.30322
C         12.13980        29.54192         0.29811
C         13.22927        31.63716         1.17113
C         11.94100        30.82690         1.08884
C         13.09976        33.07332         1.54439
C         11.87762        33.84439         1.09759
C         13.15871        36.04031         1.36831
C         11.93745        35.33141         0.96309
C         13.05291        37.56170         1.70183
C         11.87958        38.31736         0.95672
C         12.78289        40.69848         1.05005
C         11.96961        39.73852         0.44909
C         13.09897        41.95247         0.50621
C         12.29569        42.42604        -0.56358
C         13.09097        44.69471         0.08102
C         12.49091        43.85041        -1.06546
C         13.16589        46.18183        -0.21877
C         15.87262        14.59283        -0.36299
C         15.86441        15.98581        -0.20025
C         14.65718        16.72070        -0.37466
C         15.99800        18.80899        -0.55238
C         14.64835        18.12282        -0.46907
C         15.91092        20.28867        -0.28571
C         14.74263        20.97196        -0.42018
C         15.88642        23.18900         0.17848
C         14.67735        22.41010        -0.07893
C         15.79595        24.54407         0.48797
C         14.61073        25.27931         0.18079
C         15.93764        27.47543         0.41630
C         14.55897        26.75591         0.50580
C         15.74966        28.90535         0.93108
C         14.55326        29.57230         0.83752
C         15.68436        31.77300         1.43791
C         14.44949        31.00535         1.17977
C         15.65375        33.12668         1.69224
C         14.34546        33.84503         1.99234
C         15.60056        36.06467         1.97239
C         14.31051        35.33925         1.63157
C         15.59131        37.48845         1.47039
C         14.40628        38.23396         1.53681
C         15.67404        40.33557         1.11731
C         14.54926        39.62691         1.61535
C         15.66448        41.78194         0.84895
C         14.40794        42.59887         0.84107
C         15.79103        44.57096        -0.03607
C         14.47442        44.04957         0.41220
C         15.99156        45.86000        -0.63915
C         14.01309        47.04716         0.44489
C         15.66268        48.90747        -0.14431
C         14.36793        48.35012        -0.10211
C         15.80331        50.28405        -0.41176
C         18.31222        10.36729        -0.79299
C         18.29331        11.74169        -0.49288
C         17.08326        12.46806        -0.49733
C         18.30469        14.52657         0.08915
C         17.07450        13.85280        -0.26757
C         18.28381        15.96266         0.29235
C         17.09835        16.66457         0.12586
C         18.36020        18.84598         0.34713
C         17.01687        18.14941         0.38791
C         18.41350        20.24886         0.25267
C         17.19943        21.01056        -0.13215
C         18.41131        23.33920         0.32181
C         17.17954        22.50168         0.03582
C         18.19155        24.41633         1.39853
C         16.85135        25.20452         1.35486
C         18.12279        27.39375         1.72591
C         16.99526        26.69210         1.16142
C         18.20927        28.85478         1.53347
C         16.88445        29.56662         1.67814
C         18.17295        31.71492         1.52101
C         16.94850        31.05424         1.46359
C         18.20512        33.15764         1.63668
C         16.93063        33.87097         2.05528
C         18.13322        36.09594         1.72688
C         16.85921        35.30379         1.46295
C         18.06029        37.46606         1.63652
C         16.81307        38.16888         1.33361
C         18.12399        40.18721         0.62883
C         16.84859        39.55161         1.02474
C         18.10597        41.67391         0.39953
C         16.86415        42.44611         0.61255
C         18.22535        44.55388         0.30044
C         16.94993        43.86793         0.33605
C         18.23482        45.98514         0.26142
C         17.04418        46.66909        -0.13053
C         18.26348        48.87380         0.20020
C         16.90782        48.11612         0.14678
C         18.28135        50.31116        -0.09258
C         17.02802        51.02437        -0.31745
C         18.26021        53.22312        -0.16889
C         17.03211        52.40633        -0.46591
C         18.30485        54.59335        -0.87943
C         20.76184         6.27425        -1.93841
C         20.75300         7.63364        -1.53919
C         19.54121         8.30367        -1.29679
C         20.77814        10.36776        -0.74296
C         19.52624         9.66231        -0.92486
C         20.74261        11.71282        -0.27325
C         19.52978        12.41782        -0.15425
C         20.65850        14.46215         0.93548
C         19.49216        13.80275         0.21664
C         20.74186        15.95551         0.69045
C         19.54048        16.66495         0.53649
C         20.78617        18.79652         0.71929
C         19.55374        18.10315         0.53264
C         20.79013        20.22069         0.79257
C         19.60744        20.94777         0.52416
C         20.69544        22.94891         1.48645
C         19.73865        22.46833         0.38273
C         20.74622        24.45365         1.56959
C         19.45578        25.12958         1.80396
C         20.70179        27.34887         1.75495
C         19.44053        26.61354         1.99925
C         20.67947        28.76212         1.59900
C         19.41779        29.51099         1.54649
C         20.62610        31.67456         1.44510
C         19.42983        30.97943         1.49987
C         20.64971        33.12080         1.44979
C         19.39987        33.84880         1.62863
C         20.64583        36.03079         1.52770
C         19.41842        35.31752         2.08260
C         20.97156        37.38757         1.88122
C         19.15528        38.40639         1.87045
C         20.67095        40.34434         1.40066
C         19.36062        39.56402         1.17271
C         20.69191        41.66106         0.63843
C         19.42593        42.38980         0.34400
C         20.68653        44.54949         0.52252
C         19.44897        43.85919         0.41685
C         20.70213        45.95011         0.35206
C         19.49103        46.68549         0.27699
C         20.72155        48.81368        -0.10374
C         19.51139        48.10849         0.06963
C         20.73319        50.21758        -0.17400
C         19.51048        50.95614        -0.20568
C         20.80597        53.18239        -0.38569
C         19.52514        52.42524        -0.45351
C         20.81531        54.66717        -0.35474
C         19.60407        55.35176        -0.63513
C         20.85811        57.44916        -0.78772
C         19.63348        56.74076        -0.77263
C         20.89233        58.87517        -0.93149
C         23.15549         3.68762        -3.14177
C         21.97615         4.27565        -2.74802
C         23.18846         6.37359        -2.25020
C         21.95043         5.64039        -2.31307
C         23.21045         7.69453        -1.76961
C         22.00251         8.36081        -1.43426
C         23.24579        10.56162        -1.23404
C         22.00040         9.72281        -1.04249
C         23.28273        11.80747        -0.37743
C         22.00875        12.33741         0.15962
C         23.24516        14.48700         0.72757
C         21.98501        13.72946         0.74500
C         23.24324        15.88012         0.84630
C         21.98504        16.63500         0.81409
C         23.23381        18.77128         1.06983
C         22.00757        18.05691         0.84783
C         23.26516        20.16959         1.15835
C         22.03953        20.91641         1.06315
C         23.24364        23.03264         1.42918
C         22.03580        22.29360         1.27382
C         23.20422        24.44994         1.55166
C         21.93543        25.15894         1.60018
C         23.15722        27.32251         1.62457
C         21.91889        26.61658         1.65999
C         23.12722        28.74845         1.55974
C         21.91788        29.45358         1.48785
C         23.12640        31.65682         1.77978
C         21.92222        30.93845         1.15666
C         23.14719        33.11257         1.38288
C         21.88118        33.78994         1.30203
C         23.15062        35.98143         1.02525
C         21.89893        35.23716         1.04766
C         23.18122        37.37439         0.95275
C         22.00205        38.12421         1.29215
C         23.13792        40.21173         0.75708
C         21.97699        39.56103         1.15110
C         23.12925        41.64107         0.27972
C         21.94515        42.45174         0.72342
C         23.24536        44.56276         0.86736
C         21.94294        43.81426         0.64907
C         23.26198        45.95155         0.28150
C         21.97131        46.59432        -0.17037
C         23.24247        48.74392        -0.58037
C         22.03499        48.09485         0.12792
C         23.28470        50.21942        -0.26485
C         22.03689        50.92259        -0.03196
C         23.29512        53.18683        -0.11587
C         22.05233        52.46116        -0.00623
C         23.31790        54.66636         0.16128
C         22.04169        55.35661        -0.28124
C         23.34927        57.39309        -0.81607
C         22.08533        56.73267        -0.60047
C         23.32721        58.76318        -1.44890
C         22.09067        59.56161        -1.10496
C         23.39325        61.63374        -1.25483
C         22.16310        60.97345        -1.13132
C         24.36564         4.42879        -3.15939
C         25.58357         6.57402        -2.87122
C         24.39708         5.74509        -2.72375
C         25.63512         7.82663        -2.35761
C         24.54744         8.30478        -1.42584
C         25.75444        10.46504        -1.06312
C         24.55094         9.80070        -1.22278
C         25.73531        11.80826        -0.45898
C         24.46660        12.44635        -0.13257
C         25.76454        14.50603         0.58037
C         24.52109        13.67136         0.78953
C         25.73272        15.90431         0.84091
C         24.48061        16.57497         1.00489
C         25.76710        18.75454         1.50084
C         24.45742        18.00323         1.34225
C         25.74976        20.21618         1.32675
C         24.51056        20.89565         1.32255
C         25.70848        23.04779         1.53020
C         24.48496        22.32284         1.40093
C         25.65980        24.46188         1.64299
C         24.42961        25.17733         1.62036
C         25.65478        27.32411         1.44732
C         24.40823        26.61371         1.62768
C         25.67079        28.76248         1.31206
C         24.43108        29.47450         1.79256
C         25.65352        31.62329         1.34325
C         24.38892        30.92129         1.44580
C         25.65045        33.10990         1.28356
C         24.34144        33.78899         1.25409
C         25.69784        35.99072         1.11063
C         24.39348        35.25530         1.24944
C         25.65256        37.41315         0.72115
C         24.41319        38.09665         0.75434
C         25.59987        40.18525         0.25283
C         24.38842        39.50106         0.59434
C         25.59541        41.61712         0.11980
C         24.44783        42.35182         0.35335
C         25.67356        44.46165         0.27806
C         24.47535        43.78308         0.44196
C         25.75920        45.92679         0.63822
C         24.46950        46.65496         0.20001
C         25.79109        48.71659        -0.29729
C         24.51391        48.00589        -0.20377
C         25.81221        50.21238        -0.41274
C         24.51255        50.95665        -0.48606
C         25.80935        53.18597         0.14009
C         24.53527        52.47763        -0.31685
C         25.77740        54.60625        -0.37892
C         24.59060        55.31056        -0.35999
C         25.81447        57.36314        -1.06062
C         24.55495        56.69754        -0.75134
C         25.80759        58.79338        -1.22718
C         24.62637        59.51313        -1.28588
C         24.59846        60.93299        -1.30643
C         26.74245         8.77530        -2.70613
C         28.17071        10.52701        -1.84542
C         26.95521         9.90700        -1.71402
C         28.54798        11.69257        -1.07815
C         26.86880        12.42520         0.04558
C         28.22026        14.56003         0.13909
C         26.96864        13.85276         0.28238
C         28.18111        15.92780         0.59238
C         26.97540        16.58969         0.89668
C         28.11464        18.81960         0.57495
C         27.09991        18.02088         1.41153
C         28.24114        20.24361         1.06399
C         26.98621        20.94003         1.30963
C         28.22728        23.03034         1.72010
C         26.95217        22.33309         1.50022
C         28.24116        24.52622         1.70831
C         26.91729        25.22667         1.71350
C         28.08114        27.31486         0.80682
C         26.86137        26.64376         1.36368
C         28.13190        28.79542         1.06784
C         26.86230        29.45127         1.10820
C         28.12935        31.65577         0.95533
C         26.83404        30.90783         0.72754
C         28.11208        33.01903         0.89067
C         26.83032        33.75187         0.56918
C         28.08928        35.89722         0.55503
C         26.93585        35.24132         0.80079
C         28.16365        37.40411         0.65739
C         26.83950        38.09241         0.43466
C         28.09278        40.14393        -0.20731
C         26.83127        39.47717         0.14731
C         28.14283        41.65881        -0.18549
C         26.78467        42.29308        -0.50002
C         27.96366        44.44772        -0.61363
C         26.82917        43.77345        -0.20582
C         28.01055        45.90292        -0.51668
C         26.99768        46.59162         0.07906
C         28.27210        48.78829        -0.23469
C         27.04355        48.08244         0.31896
C         28.29325        50.18888        -0.24389
C         27.05553        50.94340         0.18203
C         28.18419        53.03204        -0.71603
C         27.04542        52.39647        -0.20217
C         28.15780        54.45416        -0.98193
C         27.00798        55.22064        -0.83314
C         26.98857        56.62971        -1.11128
C         29.17590        12.82577        -1.49494
C         30.48792        14.74251        -1.01767
C         29.32421        14.04022        -0.68014
C         31.00356        15.88167        -0.33856
C         29.38513        16.72721         0.72331
C         30.68429        18.81456         0.38799
C         29.44523        18.10116         0.56934
C         30.72030        20.22057         0.67042
C         29.47034        20.87911         1.05616
C         30.72185        23.09155         1.11843
C         29.51957        22.30068         1.45411
C         30.71225        24.50916         1.06055
C         29.45278        25.23840         1.21378
C         30.58574        27.36907         0.65448
C         29.38035        26.57783         0.97720
C         30.63006        28.72808         1.32431
C         29.33764        29.50858         1.13987
C         30.60823        31.67057         1.20444
C         29.37276        30.93458         1.14618
C         30.62667        33.05412         1.05288
C         29.34773        33.84502         1.12296
C         30.61073        35.86379         0.33125
C         29.32749        35.08450         0.21439
C         30.55505        37.32647         0.15323
C         29.23603        37.92233        -0.30233
C         30.46904        40.06498        -0.98620
C         29.24514        39.43341        -0.40128
C         30.42187        41.50518        -1.45831
C         29.20911        42.31909        -1.08029
C         30.04569        44.53146        -1.88230
C         29.06431        43.69531        -1.22785
C         30.30725        45.84897        -1.56914
C         29.07927        46.66941        -1.26639
C         30.52187        48.72102        -1.21446
C         29.34942        48.06049        -0.77556
C         30.55793        50.11511        -1.18944
C         29.42071        50.87456        -0.78452
C         29.37104        52.28355        -0.95396
C         31.80959        16.89172        -0.82899
C         32.95199        19.01809        -0.50167
C         31.83711        18.20715        -0.23199
C         33.08992        20.34387        -0.03629
C         31.93845        20.95452         0.60708
C         33.10779        23.15298         1.01998
C         31.92613        22.38129         0.92192
C         33.15942        24.54185         0.76875
C         31.90518        25.20820         0.73565
C         33.15693        27.41743         0.67209
C         31.89149        26.66227         0.53107
C         33.13596        28.79405         0.80529
C         31.83224        29.56156         0.84170
C         33.22060        31.67331         1.52725
C         31.85238        30.90005         1.64454
C         33.07414        33.11427         1.05275
C         31.86877        33.78752         0.95240
C         33.04011        35.95309         0.45080
C         31.83212        35.22586         0.61336
C         33.04285        37.22509        -0.35943
C         31.82133        38.07413        -0.10025
C         33.00206        40.02427        -0.96677
C         31.79073        39.42103        -0.72734
C         33.06107        41.37005        -1.63512
C         31.76589        42.14513        -1.59898
C         33.01981        44.29232        -1.77692
C         31.90886        43.41224        -2.08923
C         32.80803        45.73620        -1.83211
C         31.60973        46.43995        -1.78286
C         31.67787        47.96122        -1.84482
C         34.29630        21.01164        -0.44799
C         35.63682        23.18498        -0.40149
C         34.79198        22.20007         0.11437
C         35.61095        24.56196         0.05372
C         34.41184        25.24087         0.49956
C         35.56742        27.41075         0.21069
C         34.40387        26.67736         0.48775
C         35.48500        28.89074        -0.07337
C         34.33282        29.58207         0.61158
C         35.55649        31.71832         0.54643
C         34.34327        30.95301         0.78753
C         35.58551        33.11180         0.70884
C         34.34871        33.83799         1.05844
C         35.57445        36.01751         0.34530
C         34.32168        35.36402         0.77979
C         35.55953        37.35749        -0.05442
C         34.31198        38.03638        -0.29372
C         35.53854        40.07305        -1.10510
C         34.26511        39.35419        -0.70493
C         35.42487        41.57269        -0.92634
C         34.26282        42.21994        -1.23501
C         34.15935        43.66943        -1.28796
C         36.77858        25.32351        -0.15225
C         38.00433        27.47210        -0.16037
C         36.80357        26.73329        -0.02257
C         38.03478        28.89727        -0.08737
C         36.78957        29.62512         0.06723
C         38.00804        31.76242         0.13031
C         36.78390        31.01694         0.21830
C         38.02217        33.14330         0.31538
C         36.79371        33.86311         0.52733
C         38.04035        35.99862         0.24001
C         36.79619        35.27958         0.41765
C         38.03024        37.37395         0.03029
C         36.80595        38.09488        -0.19234
C         36.77867        39.43373        -0.54088
C         39.23909        29.59336        -0.15947
C         40.51063        31.77621         0.05381
C         39.25139        31.07509        -0.38065
C         40.51059        33.10119         0.29880
C         39.27579        33.87750         0.28346
C         39.27386        35.25312         0.28435
O         18.64690        24.30346         2.75195
O         30.86046        43.94021        -2.83589
O         20.24568        52.73260        -1.69924
O         25.16101        35.74232         2.45631
O         30.23141        40.39019        -2.42823
O         34.45402        34.81211         2.13292
O         25.02539        18.31748         2.68938
O         30.56501        16.03379         0.99687
O         13.61777        22.60508         0.95335
O         34.27331        22.50059         1.39710
O         31.58701        30.71711         3.01267
O         18.60397        27.01516         3.09883
O         28.03408        11.68626         0.23432
O         21.98922        51.68674         1.26441
O         24.54619        51.87033        -1.66752
O         20.22472        41.74545        -0.74284
O         22.05039        12.53891         1.64271
O         20.88082        35.73226         0.12156
O         18.01940        40.71908        -0.72726
O         27.72400        25.05159         2.97467
O         25.98512        32.46013         2.54978
O         10.61150        38.10204         1.66863
O         26.98622        48.29659         1.73187
O         17.39060        21.89855        -1.31843
O         14.48469        43.68538         1.84753
O         26.03228        49.40728        -1.59726
O          9.54130        31.23678         1.42938
O         12.00585        33.33825         2.49854
O         13.50160        40.33773         2.19385
O         17.50607        48.48788         1.41135
O         29.03622        22.51244         2.83074
O         31.12661        27.17615        -0.68102
O         20.13644        38.02658         2.80716
O          8.44696        35.84112         0.61928
O         31.25793        38.04931         1.23684
O         16.51133        18.62821        -1.89879
H         15.95207        19.15068        -2.51060
O         24.59257        29.45711         3.26762
H         23.87532        30.03578         3.63093
O         22.28464        48.19687         1.54980
H         22.26020        49.14257         1.81079
O         16.49382        18.33112         1.73475
H         17.09185        17.87091         2.36041
O         18.52868        24.21169        -0.83448
H         18.30286        23.68182        -1.63136
O         31.70324        48.33548        -3.23792
H         32.37154        47.77960        -3.68959
O         30.75565        28.36383         2.70852
H         31.00009        29.20755         3.20033
O         23.22104        58.50826        -2.90079
H         22.36452        58.05426        -3.05325
O         20.19180        22.39530         2.73253
H         20.65592        22.83099         3.47705
O         26.58722        42.13555        -1.93861
H         25.65173        42.35035        -2.14147
O         27.63982        17.94145         2.74635
H         26.88228        17.78026         3.35374
O         15.68490        36.20056         3.41408
H         14.85198        36.62766         3.71567
O         16.26782        25.11442         2.70333
H         17.02684        25.14366         3.33842
O         17.03515        33.95506         3.50119
H         16.15541        34.25271         3.84657
O         22.95071        31.62710         3.23727
H         23.65369        32.19762         3.62161
O         33.24478        41.06613        -3.07527
H         32.40816        40.64684        -3.38110
O         14.12680        26.84306         1.88017
H         14.72284        26.27577         2.42804
O         12.72981        37.58121         3.10775
H         11.74435        37.60368         3.16938
O         35.66190        39.86069        -2.56183
H         34.85850        40.26860        -2.98064
O         28.47585        46.90379        -2.59595
H         29.11289        47.44065        -3.11644
O         39.21337        31.21495        -1.86139
H         38.40997        30.74438        -2.17214
O         13.40826        43.87085        -2.16495
H         13.04241        43.31824        -2.88518
O         27.85001        27.23537        -0.66924
H         27.08468        27.81631        -0.87520
O         26.57767        30.88778        -0.71322
H         27.43379        30.77783        -1.17691
O         20.68725        40.74601         2.79604
H         20.69881        39.92142         3.33490
O         28.46505        42.00980         1.18882
H         29.11479        41.36556         1.53998
O         23.35147        54.77488         1.62229
H         24.17276        54.30595         1.92300
O         33.75294        31.82382         2.86060
H         33.01448        31.49521         3.45483
O         12.86323        22.67907        -2.62027
H         12.16979        22.33752        -3.22339
O         23.32988        44.77545         2.31194
H         24.19233        45.24219         2.48792
O         20.42638        22.66023        -0.86859
H         19.88835        22.24176        -1.57357
O         26.89333        50.89040         1.62544
H         26.95966        49.90322         1.89493
O         21.86783        46.35052        -1.60153
H         22.40264        47.03727        -2.07624
O         18.26019        53.51894         1.25844
H         18.08145        52.68882         1.74859
O         13.90910        27.71027        -1.69238
H         13.22096        28.29302        -2.10100
O         29.26948        34.36712         2.48305
H         29.37577        33.61564         3.10516
O         28.95607        37.38986        -1.63185
H         29.25145        38.05060        -2.29622
O         16.42025        27.54922        -0.95174
H         15.64272        27.73324        -1.53811
O         22.93983        41.53519        -1.18922
H         21.97193        41.48437        -1.37527
O         22.13193        31.03338        -0.28198
H         21.35163        30.64777        -0.73228
O         16.53377        29.39474         3.09973
H         17.25989        29.77679         3.63743
O         24.63575        13.13829         2.14755
H         23.77771        12.68433         2.33889
O         25.70835        53.27527         1.60067
H         26.10475        52.43861         1.96971
O         28.59801        37.75433         1.99329
H         28.06506        37.24168         2.63684
O         26.41495         9.37283        -3.98698
H         25.49767         9.71433        -3.93271
O         11.46126        29.27603        -1.95005
H         10.76623        28.91729        -2.54575
O         26.58803        33.60404        -0.85777
H         27.41932        33.89591        -1.30992
O         12.21605        44.51526         1.21250
H         12.75337        44.15619         1.96031
O         31.57332        29.92915        -0.54019
H         31.49176        29.08157        -1.04408
O         11.68664        30.40260         2.45243
H         11.42156        31.20238         2.95829
O         14.66902        46.68721         1.57863
H         14.35607        45.81653         1.90158
O         32.91249        36.81961        -1.77436
H         33.80490        36.58179        -2.10515
O         27.57875        18.86602        -0.78087
H         28.21477        19.35780        -1.34134
O         35.16226        28.95659        -1.52873
H         34.76549        29.83798        -1.69888
O         23.13379        11.04033        -2.64171
H         23.84249        11.70578        -2.77670
O         14.29845        33.87701         3.45648
H         13.34075        33.90744         3.69896
O         23.10307        48.64323        -2.03894
H         23.93664        49.00267        -2.42410
O         18.14424        54.41040        -2.29052
H         18.90161        53.85746        -2.59520
O         15.24542        46.24709        -1.68125
H         15.44494        47.17078        -1.93688
O         19.51611        35.29853         3.52116
H         18.69115        34.86036         3.85435
O         20.32671        14.35302         2.35450
H         20.63538        13.46303         2.64384
O         16.71470        35.12984         0.03242
H         16.94768        35.97260        -0.41049
O         24.89035         7.76066        -0.09682
H         24.87799         6.78239        -0.17083
O         25.79880        46.01052         2.08922
H         26.22943        46.90597         2.28322
O         29.19835        34.64152        -1.17153
H         29.16565        35.46872        -1.71565
H          5.53975        31.22292        -2.46888
H          5.66688        33.69811        -2.57031
H          7.73064        26.93639        -1.55382
H          6.55592        29.07803        -1.80581
H          6.92795        35.72948        -2.26456
H          8.38485        37.73340        -2.18626
H         10.13783        22.69788        -1.39730
H          8.90997        24.79004        -1.30001
H          9.57804        39.77298        -2.04293
H         10.65838        41.93067        -1.88073
H         12.50635        18.32218        -0.64966
H         11.38595        20.47151        -1.17132
H         11.49958        44.27188        -1.39010
H         12.68240        46.54061        -1.13872
H         14.93954        14.06982        -0.62011
H         13.71130        16.16561        -0.47244
H         13.55439        48.94599        -0.54515
H         14.88444        50.86315        -0.58816
H         17.36266         9.84271        -0.97562
H         16.14197        11.94942        -0.73137
H         16.08351        52.93000        -0.65617
H         17.44287        55.21179        -0.52446
H         19.81203         5.72029        -1.97421
H         18.58881         7.77404        -1.44674
H         18.69567        57.29146        -0.93884
H         19.94772        59.43566        -0.85537
H         23.16398         2.64155        -3.47861
H         21.03491         3.70772        -2.76977
H         23.41118        62.73279        -1.25692
H         21.24069        61.55942        -1.00482
H         25.28406         3.95693        -3.53702
H         26.41175         6.19280        -3.48903
H         26.77227        59.32423        -1.24447
H         25.55030        61.48455        -1.30959
H         27.70099         8.21851        -2.85533
H         28.87100        10.14814        -2.60696
H         29.08152        54.93100        -1.34165
H         27.93394        57.13108        -1.36760
H         29.67737        12.81979        -2.47435
H         31.06101        14.37602        -1.88389
H         31.43433        50.64366        -1.59256
H         30.26354        52.80917        -1.32573
H         32.38435        16.73332        -1.75373
H         33.79399        18.57313        -1.05283
H         33.72932        46.34480        -1.81771
H         32.64294        48.30684        -1.36533
H         34.84580        20.56115        -1.28917
H         36.30397        22.94518        -1.24316
H         36.33960        42.15322        -0.72558
H         35.00870        44.26442        -0.91972
H         37.70193        24.80555        -0.45040
H         38.94903        26.93089        -0.31930
H         38.98472        37.91146        -0.07455
H         37.72714        39.98507        -0.63617
H         40.17996        29.03550        -0.28562
H         41.44946        31.20255         0.06732
H         41.44845        33.62796         0.53218
H         40.22542        35.80482         0.25178
