         349
 CSIRO Nanostructure Databank - Neutral Graphene Oxide Data Set
C          1.15933         3.57444         0.43173
C         -0.06226         4.29344         0.54958
C          1.16212         6.44120         0.76055
C         -0.08090         5.65062         0.70059
C          1.14628         7.89278         0.33323
C         -0.09227         8.56987        -0.11554
C          1.14904        10.65737        -0.37803
C         -0.08155         9.88177        -0.44187
C          1.15858        12.04322        -0.24254
C         -0.03015        12.86536        -0.16061
C          1.31081        14.99901        -0.14460
C          0.02226        14.21489        -0.04271
C          1.31341        16.39140         0.43387
C          0.09183        17.10558         0.59959
C          1.28091        19.13774         1.41996
C          0.04167        18.39008         1.05016
C          1.27939        20.57481         0.91346
C          0.18929        21.19975         0.36250
C          1.34420        23.37261         0.18128
C          0.20125        22.58583         0.03977
C          1.34170        24.81086        -0.06729
C          0.17701        25.49688        -0.47874
C          1.32700        27.63447        -0.34336
C          0.17295        26.87474        -0.63776
C          1.33710        29.07656        -0.51119
C          3.59310         3.48353         0.34334
C          2.39630         4.21555         0.46711
C          3.60473         6.38052        -0.00702
C          2.50374         5.69590         0.80175
C          3.61570         7.73286        -0.24838
C          2.41491         8.54192        -0.08912
C          3.64590        10.60592        -0.69914
C          2.38887         9.89039        -0.39695
C          3.69072        12.07622        -0.28101
C          2.42499        12.71756         0.14013
C          3.80698        14.88420         0.44097
C          2.49744        14.20872         0.36370
C          3.84966        16.29148         0.59669
C          2.56359        17.03951         0.67785
C          3.80549        19.09610         1.33879
C          2.55133        18.39644         1.02676
C          3.81299        20.60613         1.28429
C          2.51716        21.35011         1.07554
C          3.78255        23.45266         0.60119
C          2.56694        22.74592         0.59205
C          3.77930        24.88220         0.45843
C          2.52482        25.56067         0.17970
C          3.67130        27.76884         0.55924
C          2.49459        26.96787         0.07387
C          3.72511        29.17510         0.01323
C          2.48069        29.80191        -0.36822
C          6.05111         3.44689         0.11660
C          4.83070         4.12352         0.09596
C          6.09884         6.21198        -0.68463
C          4.77390         5.53524        -0.35107
C          6.12951         7.67800        -0.64781
C          4.82365         8.38572        -0.92614
C          6.09546        10.53661        -0.49121
C          4.91587         9.86694        -0.64857
C          6.13423        11.97650        -0.23805
C          4.96428        12.68212         0.05678
C          6.31151        14.73893         0.48358
C          5.01550        14.01490         0.76558
C          6.37690        16.14823         1.02746
C          5.08806        16.95205         0.79126
C          6.42453        19.17661         1.22412
C          5.11791        18.34906         1.25696
C          6.27817        20.51961         0.49823
C          5.01418        21.27702         0.69147
C          6.25738        23.43328         0.62944
C          5.04510        22.75794         0.67767
C          6.25677        24.88766         0.61961
C          4.98603        25.59269         0.53616
C          6.16548        27.74636         0.47332
C          4.98714        27.03189         0.46229
C          6.17240        29.18011         0.25217
C          4.91545        29.85184         0.00105
C          8.53703         3.44356         0.18348
C          7.30822         4.10611        -0.07547
C          8.56648         6.20029        -0.45507
C          7.34071         5.48728        -0.40452
C          8.58537         7.62140        -0.60456
C          7.32405         8.33542        -0.54910
C          8.60787        10.47197        -0.76585
C          7.38469         9.79706        -0.21175
C          8.54085        11.93365        -0.85111
C          7.38094        12.65753        -0.27622
C          8.74165        14.75864        -0.06348
C          7.42405        14.06198         0.00933
C          8.73803        16.24092        -0.12588
C          7.62498        16.92210         0.59415
C          8.50907        19.14662        -0.33093
C          7.63589        18.40864         0.68116
C          8.69508        20.60993         0.03986
C          7.53890        21.29958         0.33593
C          8.74703        23.41844         0.51049
C          7.53517        22.73153         0.51745
C          8.76507        24.88459         0.89647
C          7.44691        25.58058         0.66913
C          8.65359        27.73054         0.19905
C          7.46293        27.07397         0.83626
C          8.62607        29.14008         0.03494
C          7.37643        29.85020         0.13366
C         10.99202         3.48716         0.44975
C          9.76653         4.10689         0.06441
C         11.01058         6.17747        -0.58809
C          9.79626         5.49809        -0.32471
C         11.00798         7.54962        -0.91367
C          9.80144         8.30654        -0.82700
C         11.02107        10.47485        -1.27008
C          9.79110         9.77288        -0.98672
C         11.09148        11.88330        -1.22570
C          9.83844        12.65576        -1.08131
C         11.15451        14.79911        -0.96919
C          9.94907        14.04919        -0.57067
C         11.20161        16.24729        -0.53502
C          9.84264        16.93227        -0.53270
C         11.08657        19.17964        -0.83043
C          9.80148        18.41354        -0.68262
C         11.12158        20.59785        -0.39409
C          9.96731        21.28896        -0.02466
C         11.19239        23.44305         0.14313
C          9.99744        22.72842         0.25653
C         11.25838        24.93662         0.39169
C          9.92940        25.63563         0.27727
C         10.96426        27.67419        -0.78063
C          9.84073        26.97805        -0.03998
C         11.02296        29.17095        -0.54697
C          9.81423        29.84654        -0.23936
C         13.40017         3.63227         0.85583
C         12.21695         4.13486         0.28421
C         13.59540         6.02643        -0.82337
C         12.26764         5.38608        -0.52451
C         13.60354         7.48306        -1.26896
C         12.25966         8.20366        -1.36996
C         13.58388        10.42645        -1.50998
C         12.25622         9.69942        -1.53994
C         13.57521        11.93504        -1.52880
C         12.28968        12.63426        -1.37424
C         13.56660        14.82368        -1.48320
C         12.28790        14.07761        -1.28968
C         13.57975        16.32134        -1.47691
C         12.33632        17.05896        -1.11790
C         13.58284        19.19116        -1.33951
C         12.36274        18.41000        -0.98339
C         13.58576        20.65992        -1.04040
C         12.42991        21.25029        -0.29622
C         13.69411        23.50563        -0.41223
C         12.47476        22.75237        -0.02267
C         13.62512        24.92338        -0.48377
C         12.39049        25.62647        -0.32930
C         13.45151        27.73742        -0.95102
C         12.31366        27.01294        -0.61110
C         13.44230        29.21404        -1.29342
C         12.16515        29.86981        -0.86108
C         15.75786         3.80576         1.42077
C         14.64764         4.27515         0.72657
C         15.88144         6.40641         0.22560
C         14.88451         5.36247        -0.32248
C         16.12253         7.54849        -0.78966
C         14.82735         8.31395        -1.04240
C         15.96948        10.46866        -0.57483
C         14.80790         9.68075        -1.10358
C         15.98763        11.96356        -0.61897
C         14.85419        12.70026        -1.24997
C         15.94127        14.85791        -0.66522
C         14.81280        14.14947        -1.08102
C         15.91422        16.32558        -0.63947
C         14.84600        17.01304        -1.12775
C         16.10225        19.19285        -0.86818
C         14.93429        18.46859        -1.52944
C         16.20103        20.64944        -1.10347
C         14.89405        21.42114        -1.07931
C         16.14193        23.57478        -0.75753
C         14.91432        22.85781        -0.72783
C         16.08327        24.99450        -0.63990
C         14.82407        25.63641        -0.73901
C         15.99298        27.91069        -0.59287
C         14.74248        27.06903        -0.97121
C         15.73909        29.30595        -0.17776
C         14.57133        29.93443        -0.58865
C         18.19118         3.82925         1.86535
C         17.03600         4.44610         1.32054
C         18.40115         6.34003         0.61596
C         17.15081         5.71485         0.69040
C         18.53467         7.66420        -0.02791
C         17.28645         8.41626        -0.34264
C         18.41558        10.59834         0.23895
C         17.25756         9.76979        -0.33493
C         18.45570        12.05462        -0.20175
C         17.24668        12.74122        -0.45453
C         18.40781        14.90447        -0.02202
C         17.17308        14.15326        -0.46298
C         18.38677        16.41491        -0.36433
C         17.03922        17.03515         0.09077
C         18.31886        19.21119         0.18076
C         17.10943        18.53353        -0.19857
C         18.60253        20.51421        -0.30368
C         17.51867        21.36552        -0.89029
C         18.64548        23.73601        -0.33547
C         17.48585        22.91279        -0.82921
C         18.47410        25.10698         0.03846
C         17.24045        25.77874        -0.26925
C         18.14195        27.89372         0.63984
C         17.13935        27.17002        -0.06872
C         17.93356        29.28059         0.96854
C         16.73750        29.94346         0.59867
C         19.41914         4.46344         1.81167
C         20.77576         6.48240         1.34721
C         19.54400         5.73613         1.20855
C         20.88568         7.77617         0.95603
C         19.80982         8.42919         0.18805
C         20.90789        10.63475        -0.01223
C         19.75651         9.91165         0.10226
C         20.89223        12.05819        -0.11063
C         19.70107        12.75773        -0.19574
C         20.87499        15.01950         0.00535
C         19.69868        14.24467        -0.52809
C         20.75991        16.34032         0.40275
C         19.55430        17.06303         0.33035
C         20.69225        19.09061         1.05527
C         19.35417        18.42946         0.98683
C         20.98832        20.20021         0.32848
C         19.94541        20.93075        -0.31488
C         21.05377        24.02420         0.11078
C         19.96898        23.27588        -0.38091
C         20.84090        25.28308         0.64419
C         19.55721        25.86489         0.58203
C         20.32290        27.96640         1.72630
C         19.35051        27.24084         1.00487
C         20.10657        29.30372         2.07475
C         18.93928        29.96060         1.70078
O          3.57359        11.65467        -1.69550
O         17.83810        22.17725        -2.04893
O         14.46858        12.35650        -2.62386
O          4.44035        18.55758         2.56673
O         12.77262        21.74354         1.02810
O         15.67164        27.60615        -1.98056
O         15.56536        11.27281         0.62551
O          5.33382        20.61491        -0.60632
O          5.22981         5.66107        -1.74917
O         12.94378         5.18180        -1.82333
O         12.90622         7.59509        -2.53422
O         12.96047        10.02934        -2.77663
O          1.11703         7.51281         1.77448
O         13.24309        20.17657        -2.37454
O         20.34233        22.06465        -0.98910
O          9.71230        14.17376         0.90590
O         16.82354        16.82537         1.46813
O          8.90623        12.49714        -2.18928
O         19.53350         7.75033        -1.10429
O          8.28171        17.65107         1.72547
O          3.19921        21.23186         2.43255
O         13.59670        15.59206        -2.74727
O         15.57447        21.11419        -2.33496
O         10.22900        18.88894        -2.01107
O          2.32410        13.27495         1.48475
O         13.57622        29.33063        -2.74928
H         14.43011        28.89261        -2.97794
O          1.58963        15.15724        -1.58086
H          0.87550        15.70509        -1.96911
O         10.63704        27.51405        -2.19834
H         11.29880        28.02920        -2.71082
O          8.98819        24.91481         2.36216
H          8.70284        25.82028         2.65545
O          3.44369        27.92906         2.01287
H          4.08328        28.60049         2.33344
O         15.21773        18.45157        -2.94530
H         15.05310        19.36594        -3.27828
O          7.62223        27.29995         2.31562
H          6.76599        27.05570         2.73094
O         18.87168        18.22988         2.33239
H         18.01799        17.69287         2.24980
O          6.43462        16.02837         2.48041
H          7.02562        16.75765         2.79788
O         16.50904         6.95094        -2.04037
H         16.71889         7.66277        -2.67901
O          2.98035         5.74014         2.17725
H          2.56318         6.53536         2.58683
O         11.55101        16.19922         0.89475
H         10.93963        15.54038         1.31458
O          6.76029        19.54382         2.57832
H          5.96445        19.36445         3.13709
O         18.13001        10.65616         1.67817
H         17.22084        11.03486         1.76313
O         18.45216        16.65614        -1.78189
H         19.05103        15.98377        -2.18844
O         15.49301         4.68248        -1.43129
H         14.76744         4.42235        -2.04280
O          4.59579         8.26215        -2.36029
H          4.70037         7.30336        -2.57831
O         15.26783         7.03583         1.37953
H         15.29581         6.40164         2.12702
O         19.71805        14.31679        -1.99159
H         20.55984        13.92509        -2.30620
O         11.63458        25.04719         1.81546
H         10.81710        24.82918         2.33619
O         18.42172        14.78267         1.41251
H         17.73510        15.44145         1.74845
O          4.98951        13.71611         2.20169
H          5.33288        14.51259         2.67370
O          7.69383        19.12016        -1.53316
H          8.29241        19.33478        -2.28581
O          7.54800         9.85078         1.25320
H          6.71450         9.53896         1.66516
O          1.31195        19.22773         2.88237
H          2.07364        19.80944         3.12429
H          1.12630         2.48708         0.27244
H         -1.00920         3.73682         0.51528
H         -1.03652         6.17902         0.81859
H         -1.03950         8.01305        -0.11121
H         -1.02008        10.38397        -0.71564
H         -1.01441        12.37464        -0.18296
H         -0.93000        14.76213         0.00657
H         -0.85709        16.60026         0.37165
H         -0.93222        18.86888         1.22079
H         -0.74421        20.64354         0.19886
H         -0.73632        23.03120        -0.31775
H         -0.74676        24.93915        -0.68347
H         -0.74105        27.38669        -0.97116
H          0.40355        29.56926        -0.81985
H          3.55748         2.38356         0.37354
H          2.48519        30.88100        -0.58383
H          6.06066         2.38516         0.40497
H          4.94323        30.90997        -0.30240
H          8.52167         2.38995         0.49820
H          7.37857        30.93617        -0.04287
H         10.96216         2.50527         0.94531
H          9.79934        30.94702        -0.24138
H         13.33434         2.73787         1.49542
H         12.15396        30.96924        -0.79266
H         15.66339         2.91016         2.05436
H         14.41728        30.98951        -0.31535
H         18.09630         2.84266         2.34092
H         16.59312        30.99178         0.89873
H         20.30536         3.99343         2.26174
H         21.60333         6.00292         1.89121
H         21.78581         8.35606         1.20645
H         21.87837        10.12003        -0.05974
H         21.85594        12.58156        -0.17529
H         21.85089        14.52551         0.11882
H         21.65398        16.81314         0.83614
H         21.45771        18.63859         1.70129
H         21.99985        20.62990         0.32910
H         22.06263        23.59489         0.06277
H         21.69278        25.85010         1.04048
H         21.25881        27.48391         2.03800
H         20.87528        29.84213         2.64650
H         18.78647        31.01516         1.97067
