         490
 CSIRO Nanostructure Databank - Neutral Graphene Oxide Data Set
C         37.69971        50.66179         1.29090
C         36.52622        51.39216         1.16698
C         37.77341        53.22735         0.20566
C         36.55988        52.67816         0.61148
C         40.20373        49.13673         1.53047
C         40.15656        50.40664         0.95228
C         38.94574        51.18928         0.86673
C         40.26306        53.12967        -0.03374
C         38.98134        52.51495         0.33151
C         40.34582        54.49181        -0.42240
C         42.60861        48.83994         1.07555
C         41.36329        48.34412         1.52763
C         42.66753        50.35452         0.89062
C         41.39566        50.88379         0.22513
C         42.69468        52.98684        -0.31695
C         41.45260        52.38323         0.01631
C         42.75810        54.33316        -0.76894
C         41.54540        55.06633        -0.79851
C         44.90607        45.86648         0.99835
C         43.75488        46.59874         1.07667
C         44.97412        48.59702         0.27495
C         43.74608        48.03541         0.94045
C         45.05966        50.09233         0.18656
C         43.89999        50.86652         0.17658
C         45.09376        52.74690        -0.88305
C         43.91190        52.21241        -0.29199
C         45.22112        54.15986        -1.21933
C         44.03229        54.92803        -1.14832
C         45.27531        56.97601        -1.63299
C         44.08598        56.32557        -1.44245
C         47.64549        44.46598         1.60762
C         47.50009        45.70118         0.74569
C         46.23971        46.51073         1.02646
C         47.54354        48.65360         0.36221
C         46.27205        47.98113         0.73271
C         47.57478        49.95535        -0.13167
C         46.27847        50.61500        -0.33558
C         47.98179        52.78098        -1.21601
C         46.14085        51.80949        -1.05098
C         47.76030        54.20057        -1.26143
C         46.51182        54.84209        -1.41916
C         47.72641        57.07490        -1.51411
C         46.52746        56.29719        -1.54731
C         47.75800        58.49325        -1.38891
C         50.08555        44.56328         1.43203
C         48.86088        43.92338         1.86520
C         50.02082        45.86530         0.96180
C         48.75054        46.55425         0.82491
C         49.98397        48.71096         0.99409
C         48.74479        47.92236         0.66244
C         49.98924        50.10831         0.41787
C         48.86957        50.69901        -0.14256
C         50.04128        52.99830         0.09399
C         48.94435        52.12673        -0.48073
C         50.19304        54.31017        -0.64060
C         49.04191        54.91048        -1.29878
C         50.25609        57.15541        -1.15124
C         49.03997        56.42954        -1.52432
C         50.21974        58.57799        -1.14713
C         48.93954        59.20574        -1.27640
C         52.39692        41.64379         1.27476
C         51.45111        42.44910         1.78364
C         52.35805        44.31650         0.39952
C         51.46774        43.95918         1.62065
C         52.44531        45.83944         0.10371
C         51.23572        46.58821         0.62964
C         52.50189        48.68102         0.51464
C         51.25166        47.95819         0.64225
C         52.52597        50.07123         0.51446
C         51.26217        50.87124         0.73595
C         52.55645        52.90988         0.07484
C         51.34187        52.25378         0.16017
C         52.60120        54.33602        -0.18762
C         51.39372        55.01629        -0.58716
C         52.66617        57.15506        -0.69631
C         51.43762        56.43846        -0.86882
C         52.67947        58.57739        -0.85800
C         51.45326        59.29687        -1.03576
C         52.70795        61.39720        -1.10716
C         51.51170        60.72078        -1.11496
C         54.91065        39.91717         0.85674
C         54.84802        41.33221         0.42738
C         53.59729        42.16743         0.57370
C         54.88770        44.32780         0.60248
C         53.70388        43.65340         0.54485
C         54.93576        45.79444         0.68206
C         53.73213        46.52307         0.51335
C         54.98134        48.62690         0.68628
C         53.74294        47.92836         0.55050
C         55.00359        50.04542         0.58394
C         53.77199        50.77631         0.44611
C         55.03911        52.88567         0.22391
C         53.79666        52.17965         0.27085
C         55.02932        54.28488         0.07032
C         53.82021        55.02509        -0.12940
C         55.07009        57.19261        -0.22994
C         53.86270        56.45996        -0.36212
C         55.10550        58.56786        -0.47274
C         53.92083        59.27958        -0.79367
C         55.19937        61.37954        -1.14339
C         53.95863        60.71361        -1.00121
C         55.31541        62.77100        -1.38071
C         57.37444        39.94342         0.95049
C         56.08369        39.26611         1.01941
C         57.36761        41.33956         0.78867
C         56.15779        42.06743         0.37056
C         57.41029        44.26796         0.92610
C         56.17262        43.59072         0.50056
C         57.29886        45.65093         1.51605
C         56.14422        46.46567         0.95686
C         57.41110        48.61543         1.10368
C         56.19310        47.89488         0.92618
C         57.45240        50.02299         0.91422
C         56.24228        50.74280         0.63539
C         57.52359        52.82455         0.45016
C         56.28217        52.15665         0.42477
C         57.58161        54.24910         0.09492
C         56.29713        55.01477        -0.06837
C         57.60899        57.16997        -0.05942
C         56.30187        56.49094         0.28798
C         57.63671        58.51411        -0.29645
C         56.38029        59.35629        -0.24733
C         57.75181        61.30539        -1.19529
C         56.44759        60.52723        -1.23944
C         57.77805        62.68278        -1.50149
C         56.53298        63.39166        -1.58267
C         59.76423        37.10068         0.49226
C         58.66036        37.77390         0.90064
C         59.86059        39.90535         0.77089
C         58.60812        39.21661         0.92958
C         59.89820        41.35293         1.05580
C         58.58166        42.10575         1.05073
C         59.87267        44.27115         1.15853
C         58.59604        43.58517         0.99474
C         59.91286        45.66101         1.30769
C         58.64328        46.38923         1.57237
C         59.95771        48.56187         1.26589
C         58.65492        47.88333         1.44649
C         59.91184        50.03000         1.41574
C         58.67884        50.75565         1.04886
C         59.99159        52.87975         0.85637
C         58.72521        52.14215         0.81594
C         60.02072        54.28718         0.58945
C         58.82149        55.01486         0.33097
C         60.10190        57.07423        -0.01113
C         58.83503        56.39701         0.11904
C         60.13641        58.40684        -0.41825
C         58.93457        59.28294        -0.26704
C         60.18608        61.18630        -1.37778
C         58.95931        60.58166        -1.05612
C         60.25038        62.57871        -1.69706
C         59.04720        63.35026        -1.68431
C         60.36114        65.34446        -2.20234
C         59.15018        64.74806        -1.90012
C         62.31962        35.64702         0.24107
C         62.29506        37.05865         0.15881
C         60.97707        37.80207        -0.06104
C         62.26649        39.99448         0.19501
C         61.02046        39.24148         0.40687
C         62.34796        41.43222         0.57334
C         61.12030        42.14528         0.83017
C         62.39925        44.23351         1.20029
C         61.09214        43.52350         0.99756
C         62.35838        45.72357         1.03157
C         61.16330        46.39978         1.18249
C         62.41950        48.58809         1.08742
C         61.14696        47.86971         1.21061
C         62.45248        50.00433         1.15941
C         61.22075        50.77528         1.41608
C         62.45473        52.90703         1.09568
C         61.20893        52.21234         1.08390
C         62.46426        54.30150         0.92392
C         61.26616        54.98929         0.58611
C         62.58787        57.04557         0.09941
C         61.32191        56.35633         0.20506
C         62.64972        58.33652        -0.46089
C         61.39455        58.96003        -0.91183
C         62.74277        61.01218        -1.60942
C         61.40688        60.34992        -1.46874
C         62.77175        62.45384        -1.98866
C         61.49554        63.21585        -2.01328
C         62.79421        65.15042        -2.98657
C         61.55304        64.58336        -2.29287
C         62.81052        66.65851        -2.99063
C         64.76349        35.60759         0.16481
C         63.50894        34.94454         0.25154
C         64.76348        37.03857         0.11763
C         63.52385        37.74074         0.10705
C         64.83323        39.90680         0.17615
C         63.55021        39.21783        -0.00149
C         64.86892        41.34704         0.60279
C         63.55770        42.09815         0.52740
C         64.68987        44.24796         0.14367
C         63.58038        43.54771         0.54150
C         64.57450        45.72552        -0.17907
C         63.70469        46.39043         0.95066
C         64.77099        48.61856         0.43279
C         63.61813        47.89267         0.79909
C         64.81045        50.01236         0.56800
C         63.65746        50.71114         0.97302
C         64.92372        52.81751         1.18119
C         63.70730        52.16736         1.13933
C         64.98751        54.27481         1.36474
C         63.68875        55.07549         1.13926
C         65.00020        57.15410         0.56548
C         63.78197        56.43953         0.58851
C         65.04767        58.49599         0.13134
C         63.85978        59.10111        -0.42411
C         64.93533        61.36175        -0.35652
C         63.89928        60.42370        -0.91208
C         65.08861        62.66823        -1.11863
C         64.02640        63.22411        -1.77667
C         65.12628        65.48210        -1.81745
C         64.17163        64.53119        -2.53739
C         65.01310        66.83475        -1.91046
C         63.81386        67.41257        -2.50767
C         67.19000        32.74632         0.04132
C         66.03903        33.45286         0.16481
C         67.23728        35.59519        -0.10161
C         65.99605        34.88825         0.07915
C         67.22444        37.05012        -0.10542
C         66.01465        37.74822         0.01549
C         67.26839        39.91419        -0.07282
C         66.02428        39.20315         0.05544
C         67.23923        41.38768        -0.43410
C         66.00957        42.11287         0.03258
C         67.20403        44.25286        -0.41048
C         66.03654        43.58260         0.32107
C         67.22520        45.75301        -0.28911
C         65.92926        46.46024        -0.35106
C         67.28465        48.64066        -0.01615
C         65.97352        47.94216        -0.12086
C         67.31797        49.98975         0.20035
C         66.04508        50.79312         0.18709
C         67.38951        52.83051         0.48989
C         66.21936        52.03473         1.05986
C         67.18083        54.25020         0.31714
C         66.20237        54.97442         0.92265
C         67.54757        57.23805         0.98535
C         66.25098        56.46802         0.99538
C         67.49226        58.68388         0.65268
C         66.27332        59.27229         0.23211
C         67.36145        61.46693         0.21149
C         66.23962        60.66949        -0.03778
C         67.27940        62.89671        -0.05387
C         66.28397        63.44199        -0.82855
C         67.26400        65.73042        -0.48973
C         66.43485        64.84653        -1.39310
C         67.08777        67.15795        -0.53448
C         66.24213        67.72108        -1.64273
C         66.50522        69.91029        -0.43882
C         65.94909        69.17814        -1.43728
C         68.97390        31.57691        -1.90072
C         69.26592        32.85217        -1.40146
C         68.52400        33.39341        -0.17991
C         69.74534        35.60304        -0.45849
C         68.43435        34.89852        -0.25595
C         69.63583        37.09592        -0.61293
C         68.46240        37.77246        -0.28640
C         69.72119        39.91420        -0.42921
C         68.46461        39.22018        -0.25164
C         69.79272        41.34729        -0.03253
C         68.50621        42.10727         0.05570
C         69.67399        44.24999        -0.70069
C         68.53693        43.64371         0.09336
C         69.67596        45.73307        -0.69200
C         68.44217        46.44133        -0.40985
C         69.69883        48.56942        -0.51513
C         68.49807        47.88397        -0.30672
C         69.67882        50.09711        -0.58288
C         68.65841        50.69643         0.40000
C         69.92217        52.97330        -0.06873
C         68.59290        52.21947         0.26623
C         70.10000        54.31975         0.69028
C         69.11836        55.34391         0.48645
C         69.98714        57.45649         1.50835
C         68.90764        56.60832         1.02118
C         69.88062        58.87498         1.35711
C         68.65117        59.47481         0.87413
C         69.72315        61.70356         1.00567
C         68.58242        60.88673         0.68924
C         69.63135        63.16503         0.82738
C         68.24684        63.76012         0.70557
C         69.29294        66.12136         0.86541
C         68.26084        65.18598         0.27418
C         68.51872        67.27118         1.50708
C         67.67591        67.95959         0.45119
C         68.01442        70.14170         1.58800
C         67.40014        69.34298         0.54363
C         67.66088        71.50190         1.76449
C         70.69798        31.79338        -3.57975
C         69.68087        31.04465        -2.98034
C         70.99852        33.06322        -3.10151
C         70.29558        33.62230        -2.00720
C         71.65970        35.71691        -2.01569
C         70.58604        34.97434        -1.55816
C         71.82858        37.08028        -1.67015
C         70.80948        37.80293        -1.03397
C         72.09166        39.99041        -1.04395
C         70.85761        39.24096        -0.84521
C         72.21286        41.29626        -0.73968
C         71.11721        42.12041        -0.10737
C         72.17061        44.31552        -0.99152
C         70.96450        43.48848        -0.81629
C         72.10376        45.66579        -1.07592
C         70.87461        46.41997        -0.89723
C         72.11547        48.59465        -0.91406
C         70.90059        47.86343        -0.81156
C         72.18790        49.94316        -0.60256
C         71.03460        50.71815        -0.34322
C         72.25889        52.44786         0.85155
C         71.10382        52.03627         0.14657
C         72.29062        53.62073         1.58223
C         71.20300        54.52708         1.52129
C         72.27999        57.73334         2.32365
C         71.18355        56.91700         2.01568
C         72.18983        59.10792         2.14455
C         70.99294        59.70714         1.68826
C         71.89172        62.02337         2.12043
C         70.88376        61.14838         1.55392
C         71.76741        63.37590         2.17225
C         70.67392        64.06574         1.48021
C         70.79725        66.20537         2.82094
C         70.25908        65.45118         1.82253
C         70.44246        67.59796         2.99598
C         69.40139        68.18307         2.32247
C         69.60634        70.40469         3.43204
C         69.01021        69.58141         2.45404
C         69.24102        71.73853         3.57784
C         68.25909        72.28719         2.74096
O         70.01189        43.55166        -1.94196
O         65.80943        47.40768        -1.49668
O         61.27698        59.22055        -2.40209
O         46.32025        47.49599         2.11227
O         57.03851        54.59884        -1.25135
O         69.08532        41.53613         1.25758
O         68.11670        54.96162        -0.44244
O         58.66037        47.22276         2.78970
O         66.80346        56.96784         2.26477
O         64.27411        54.86254         2.47689
O         53.94012        41.53305        -0.71278
O         47.11373        52.04194        -2.02212
O         60.53380        50.47530         2.68181
O         49.28894        55.49404        -2.62348
O         70.64704        63.80954         0.01437
O         71.28988        55.57790         2.43896
O         59.23878        41.67898         2.32150
O         56.34336        42.91188        -0.80507
O         62.80079        39.75490        -1.18416
O         62.95476        61.42873        -3.03634
O         41.35475        50.28448        -1.10879
H         40.55127        50.61662        -1.56178
O         44.85505        48.17742        -1.13227
H         44.03298        48.57313        -1.49382
O         69.10261        50.39043         1.74343
H         68.37653        50.67621         2.34817
O         51.70052        43.69033        -0.74035
H         52.31911        43.04999        -1.15478
O         56.30099        59.92251         1.09957
H         56.07138        59.18662         1.70898
O         64.38019        61.78338         0.95578
H         64.50431        61.03850         1.58290
O         64.89724        64.18331        -3.75795
H         64.31116        64.44852        -4.51314
O         60.80748        37.85902        -1.52056
H         61.50534        38.47899        -1.84868
O         63.82931        45.83045        -1.40209
H         64.28297        46.50897        -1.95857
O         67.02834        67.60863        -2.87456
H         67.30401        66.65875        -2.94889
O         51.21815        51.13295         2.20620
H         50.50528        51.81210         2.32538
O         70.53473        35.41395         0.77489
H         70.49190        34.44469         0.97972
O         66.23570        43.78793         1.79675
H         65.74041        44.61345         2.04886
O         42.69559        50.93088         2.22554
H         43.49949        50.60484         2.68134
O         67.03555        43.98082        -1.82841
H         67.79805        44.37406        -2.30668
O         65.85391        51.28141        -1.17223
H         66.02427        50.53875        -1.78986
O         68.80216        44.07637         1.43812
H         68.03839        43.79964         2.00014
O         49.94792        48.82050         2.45613
H         50.54485        49.57473         2.70052
O         56.42178        59.89822        -2.55813
H         56.47220        60.60673        -3.23339
O         65.08690        41.28560         2.08505
H         65.53157        42.13657         2.33180
O         70.08644        66.64451        -0.22440
H         70.51765        65.87161        -0.65441
O         67.58320        66.64484         2.45152
H         67.13000        67.35945         2.94700
O         56.20383        56.56571         1.75302
H         57.04600        56.23034         2.12893
O         62.57751        64.76659        -4.38137
H         62.28357        63.82943        -4.39526
O         69.36203        33.02043         0.98459
H         68.82913        33.19408         1.78995
O         64.44860        46.10329         2.18605
H         63.82709        45.65691         2.80990
O         47.33915        45.22709        -0.62764
H         48.14273        44.71511        -0.85948
O         59.03121        59.77791         1.13555
H         58.13057        60.12388         1.36696
O         56.90595        45.37928         2.89964
H         57.29194        46.10958         3.44142
O         69.91722        53.24688        -1.49057
H         69.15671        53.84854        -1.66308
O         71.54178        42.43240         1.23799
H         70.72186        42.46869         1.78740
O         67.23782        64.73877        -2.61851
H         66.63027        64.36600        -3.30967
O         52.40934        46.01161        -1.34109
H         51.90760        45.23491        -1.69132
O         62.70866        44.03766         2.65107
H         62.58375        43.08359         2.85231
O         69.21307        50.43836        -1.91497
H         69.95932        50.32281        -2.53879
O         67.72524        63.79343         2.08629
H         67.45912        64.72249         2.29840
O         52.08415        44.56024         2.78394
H         51.43484        44.56020         3.51717
O         67.28603        41.35398        -1.89921
H         67.05067        42.26181        -2.21957
O         66.58907        51.57828         2.39364
H         66.45260        52.31987         3.02104
O         49.66047        53.32657         1.50116
H         50.28187        54.02168         1.80913
H         37.64849        49.64873         1.71163
H         35.57173        50.95804         1.49506
H         37.77114        54.23933        -0.22048
H         35.63225        53.25623         0.50067
H         39.29680        48.70244         1.97522
H         39.44121        55.11328        -0.45193
H         41.28414        47.30496         1.87804
H         41.53116        56.11315        -1.12782
H         44.85383        44.76746         1.00198
H         42.79737        46.06920         1.19528
H         45.25609        58.05521        -1.83281
H         43.16110        56.91392        -1.48516
H         46.73294        43.94324         1.93084
H         46.81922        59.06399        -1.39999
H         48.91706        42.98044         2.42918
H         48.87563        60.30171        -1.23222
H         52.31544        40.55445         1.40783
H         50.62417        41.99315         2.34936
H         52.69431        62.49078        -1.21044
H         50.58095        61.29515        -1.21835
H         53.96541        39.35952         0.91829
H         54.40933        63.39304        -1.40518
H         56.06471        38.19345         1.25633
H         56.53880        64.47120        -1.78334
H         59.72513        36.00302         0.46327
H         57.77473        37.20095         1.21198
H         60.38667        66.42587        -2.39159
H         58.25287        65.37963        -1.85416
H         61.38044        35.07959         0.27204
H         61.96171        67.15388        -3.48442
H         63.46573        33.84839         0.29118
H         63.74313        68.50639        -2.58836
H         67.16794        31.65629         0.18457
H         65.10882        32.90107         0.35894
H         66.27645        70.98445        -0.39357
H         65.32616        69.69065        -2.18467
H         68.18226        30.97267        -1.43760
H         66.89310        71.95647         1.12462
H         71.25659        31.38264        -4.43214
H         69.43875        30.03988        -3.35274
H         71.78906        33.64299        -3.59679
H         72.39464        35.27202        -2.70225
H         72.72204        37.59840        -2.04421
H         72.96583        39.45889        -1.44641
H         73.18694        41.78738        -0.87956
H         73.15440        43.82463        -1.00656
H         73.04473        46.21696        -1.20543
H         73.05006        48.07652        -1.16409
H         73.17577        50.42552        -0.59796
H         73.10523        51.75199         0.93755
H         73.14666        53.85776         2.22634
H         73.19521        57.28188         2.72775
H         73.06498        59.72485         2.38388
H         72.74660        61.56921         2.63947
H         72.49299        63.97001         2.74713
H         71.57010        65.78773         3.48362
H         71.07069        68.18794         3.67890
H         70.36929        69.98678         4.10308
H         69.71757        72.35799         4.34988
H         67.96263        73.33883         2.85595
