         430
 CSIRO Nanostructure Databank - Neutral Graphene Oxide Data Set
C         27.95926        27.39619         0.83437
C         27.92236        28.80959         0.68149
C         26.71089        29.54506         0.87160
C         27.85789        31.68314         0.53606
C         26.71404        30.93465         0.86437
C         27.85653        33.12311         0.55010
C         26.63702        33.86017         0.62050
C         27.84072        35.97609         0.45310
C         26.63368        35.23367         0.50758
C         27.82607        37.39655         0.21664
C         26.71554        38.07746        -0.26282
C         27.86972        40.24468        -0.21321
C         26.72506        39.48376        -0.41542
C         27.85872        41.70731        -0.26193
C         26.62538        42.45365        -0.20762
C         27.83369        44.56093        -0.39852
C         26.62217        43.82901        -0.34716
C         27.88260        45.94546        -0.63585
C         30.36965        27.38263         0.46575
C         29.14384        26.70260         0.69161
C         30.35502        28.80461         0.37996
C         29.12320        29.50184         0.41251
C         30.35977        31.66803         0.33254
C         29.07620        30.95305         0.02872
C         30.35726        33.15362         0.12798
C         29.07294        33.85185         0.49023
C         30.34095        35.96739         0.66872
C         29.08280        35.26741         0.54543
C         30.31697        37.43499         0.87829
C         29.03703        38.17185         0.56306
C         30.33179        40.24716         0.01030
C         29.11669        39.59333         0.14119
C         30.32032        41.62097        -0.64128
C         29.06426        42.38076        -0.32226
C         30.36371        44.54951        -0.42741
C         29.10197        43.84953        -0.01303
C         30.34999        45.93397        -0.63828
C         29.09416        46.61998        -0.71248
C         32.84294        24.59071        -0.03549
C         31.65457        25.26573         0.22120
C         32.84192        27.40022         0.15496
C         31.62384        26.67633         0.29457
C         32.82357        28.84107         0.20710
C         31.59578        29.53029         0.30768
C         32.81805        31.69097         0.48580
C         31.56813        30.97421         0.37072
C         32.79707        33.11589         0.63572
C         31.60720        33.84554         0.59528
C         32.80457        36.02463         0.85288
C         31.56380        35.27845         0.73567
C         32.84814        37.38600         0.67474
C         31.62544        38.23403         0.94848
C         32.79381        40.19279        -0.07476
C         31.60501        39.57494         0.21587
C         32.84475        41.60971        -0.62706
C         31.58496        42.40655        -0.42488
C         32.83690        44.55989        -0.41306
C         31.59273        43.79848        -0.42810
C         32.83899        45.93320        -0.52455
C         31.61052        46.65670        -0.75637
C         32.90740        48.71709        -1.11268
C         31.67701        48.01811        -1.04443
C         35.37670        23.09777        -0.20261
C         35.29207        24.54153        -0.61589
C         34.05830        25.27314        -0.14594
C         35.32790        27.39428        -0.03183
C         34.08601        26.69263        -0.00903
C         35.33826        28.89236        -0.19660
C         34.05162        29.57900         0.21115
C         35.31781        31.63478         0.86890
C         34.04231        30.96013         0.42406
C         35.36532        33.11443         0.60774
C         34.08231        33.86712         0.64667
C         35.34488        36.01643         1.16986
C         34.02990        35.24637         1.28389
C         35.30280        37.43464         0.72025
C         34.11394        38.07462         0.49860
C         35.36071        40.23963         0.01851
C         34.09479        39.41802        -0.19956
C         35.35382        41.61062        -0.15438
C         34.07220        42.33705        -0.11532
C         35.39213        44.52529        -0.27609
C         34.09365        43.83493        -0.11472
C         35.34383        45.94581        -0.78074
C         34.12203        46.70393        -0.26130
C         35.37514        48.82763        -0.81636
C         34.11499        48.12295        -0.79337
C         35.42787        50.22839        -0.95816
C         37.78765        23.13852        -0.51218
C         36.57283        22.43687        -0.28146
C         37.79391        24.56264        -0.39803
C         36.57290        25.27688        -0.31889
C         37.81666        27.36209         0.05652
C         36.56786        26.68087        -0.10910
C         37.81858        28.75802         0.61310
C         36.58744        29.57019         0.31650
C         37.86148        31.64055         0.74078
C         36.61024        30.91974         0.55297
C         37.85446        33.08971         0.84316
C         36.64695        33.78556         0.89045
C         37.80697        35.95490         0.33269
C         36.63667        35.26109         1.00238
C         37.89636        37.42617         0.66926
C         36.58250        38.17917         0.67519
C         37.84905        40.28368         0.24676
C         36.59864        39.57160         0.24215
C         37.85072        41.66931         0.14715
C         36.63303        42.35699        -0.38670
C         37.84907        44.56219        -0.26416
C         36.58159        43.85318        -0.20731
C         37.84699        45.99147        -0.42292
C         36.63175        46.70206        -0.56862
C         37.85424        48.83851        -0.56825
C         36.61737        48.11215        -0.64805
C         37.85329        50.26591        -0.65239
C         36.62575        50.92630        -0.87499
C         40.17915        20.25009        -0.66947
C         39.08205        20.96656        -0.93276
C         40.27170        23.11403        -0.30239
C         39.06534        22.47117        -0.95320
C         40.25425        24.50671        -0.15133
C         39.04324        25.26491        -0.27433
C         40.29823        27.39544         0.11373
C         39.03914        26.67565        -0.03803
C         40.31765        28.81820         0.26048
C         39.09534        29.52832         0.39887
C         40.37206        31.61144         0.79486
C         39.07799        30.92261         0.61896
C         40.38603        33.14176         0.87291
C         39.10034        33.84987         0.76914
C         40.33601        35.95120         0.34959
C         39.11521        35.22168         0.53474
C         40.33077        37.38319         0.17876
C         39.12924        38.13267         0.29353
C         40.32308        40.24272        -0.02426
C         39.11974        39.54561         0.23808
C         40.35016        41.69731        -0.01025
C         39.10554        42.44993         0.42987
C         40.28640        44.58891        -0.11363
C         39.06578        43.88521        -0.06010
C         40.31177        45.98914        -0.26704
C         39.08503        46.70876        -0.37329
C         40.31265        48.85885        -0.26015
C         39.08131        48.13245        -0.42155
C         40.30249        50.25535        -0.23970
C         39.09487        50.99227        -0.48210
C         40.38018        53.09237        -0.51161
C         39.15719        52.39574        -0.57879
C         42.70728        20.21497        -0.71511
C         41.45758        20.86177        -0.15931
C         42.71755        23.01625        -0.30090
C         41.49076        22.36811        -0.27112
C         42.80556        24.41240         0.08439
C         41.47407        25.21414         0.25457
C         42.76051        27.36030         0.22343
C         41.51725        26.68725         0.15600
C         42.80698        28.77970         0.19574
C         41.58078        29.51123         0.26836
C         42.82560        31.65324         0.31346
C         41.61574        30.92423         0.42105
C         42.82493        33.10266         0.30529
C         41.62134        33.83479         0.48124
C         42.79562        35.95620         0.05134
C         41.57876        35.24409         0.29330
C         42.78961        37.37897        -0.08003
C         41.55461        38.09171        -0.01628
C         42.78056        40.21490        -0.31357
C         41.55131        39.51661        -0.14627
C         42.75776        41.67905        -0.68507
C         41.51528        42.38439        -0.18691
C         42.74998        44.53388        -0.56004
C         41.58117        43.85378         0.16144
C         42.80020        46.00802        -0.24033
C         41.56904        46.71825        -0.22045
C         42.80517        48.83302        -0.05511
C         41.56405        48.12768        -0.14413
C         42.82257        50.26091         0.00992
C         41.52872        51.00209         0.21950
C         42.83260        53.10714        -0.22655
C         41.57216        52.43518        -0.24068
C         43.83671        20.88607        -0.97949
C         45.22542        23.03419        -0.60583
C         43.90518        22.39398        -1.00054
C         45.25170        24.44484        -0.34368
C         44.04513        25.15559        -0.08359
C         45.30649        27.35740         0.08232
C         44.01798        26.58401         0.26960
C         45.27998        28.82395        -0.05875
C         44.05462        29.50737         0.09914
C         45.27327        31.65431        -0.07388
C         44.05048        30.94215         0.10202
C         45.26488        33.08486        -0.13177
C         44.03654        33.80603         0.02546
C         45.21531        35.96364        -0.32505
C         44.01982        35.24046        -0.06439
C         45.24225        37.37609        -0.33359
C         44.01269        38.09342        -0.22286
C         45.25611        40.24791        -0.28842
C         44.00359        39.52426        -0.29622
C         45.26001        41.67186        -0.23984
C         44.03943        42.41156        -0.35695
C         45.26818        44.52495        -0.14038
C         44.04471        43.79839        -0.31476
C         45.27242        45.95091        -0.09063
C         44.02420        46.68374        -0.13478
C         45.27364        48.82077         0.02494
C         44.03250        48.11425        -0.04913
C         45.27824        50.24530         0.03690
C         44.02839        50.96762         0.01382
C         44.00165        52.41586        -0.05097
C         47.66439        23.03710        -0.69155
C         46.43720        22.35928        -0.73573
C         47.71755        24.43507        -0.56592
C         46.50855        25.12960        -0.37118
C         47.76549        27.37206        -0.48652
C         46.48407        26.61131        -0.43458
C         47.75637        28.82997        -0.25661
C         46.51414        29.52336        -0.20120
C         47.74037        31.65708        -0.37909
C         46.51347        30.95704        -0.22184
C         47.72043        33.09210        -0.49182
C         46.47873        33.76949        -0.40045
C         47.75524        35.98491        -0.66737
C         46.43225        35.21414        -0.64238
C         47.72842        37.42011        -0.36988
C         46.49344        38.10345        -0.35335
C         47.72175        40.23499        -0.10790
C         46.48400        39.53197        -0.24324
C         47.72361        41.65775        -0.02186
C         46.49280        42.37765        -0.09529
C         47.72991        44.51241         0.09448
C         46.49622        43.80502        -0.04125
C         47.73159        45.93548         0.12963
C         46.49921        46.65461         0.04186
C         47.73507        48.79616         0.17646
C         46.50633        48.09367         0.08008
C         47.71105        50.21550         0.17640
C         46.52681        50.91590         0.10097
C         50.28509        24.49334        -0.40333
C         49.01882        25.20186        -0.82740
C         50.27163        27.36223        -0.29552
C         48.99476        26.57438        -0.12338
C         50.23943        28.78466        -0.31898
C         48.98642        29.51416        -0.28702
C         50.22380        31.63102        -0.48137
C         48.99011        30.94519        -0.37807
C         50.24181        33.09495        -0.83229
C         48.95146        33.81942        -0.56643
C         50.19935        35.92569        -0.19791
C         48.99048        35.22022        -0.47460
C         50.19876        37.35925        -0.08289
C         48.95967        38.09596        -0.16330
C         50.18900        40.21910         0.11545
C         48.95512        39.51443        -0.03832
C         50.19075        41.64209         0.20005
C         48.95800        42.36532         0.12527
C         50.19832        44.48977         0.32946
C         48.96203        43.78675         0.18608
C         50.20386        45.92189         0.36872
C         48.97309        46.64455         0.25974
C         50.22070        48.73765         0.41115
C         48.98031        48.06594         0.27890
C         51.41890        25.18997        -0.19321
C         52.71744        27.36310        -0.32687
C         51.47666        26.65079        -0.28452
C         52.70358        28.78868        -0.35162
C         51.46442        29.50178        -0.35377
C         52.69608        31.66345        -0.39483
C         51.45588        30.93941        -0.41421
C         52.69282        33.08250        -0.25139
C         51.44938        33.81257        -0.27890
C         52.60938        35.85893         0.57217
C         51.40758        35.17447        -0.02205
C         52.66234        37.34435         0.27708
C         51.41717        38.06455         0.09145
C         52.64712        40.21141         0.27730
C         51.42216        39.49751         0.14960
C         52.65288        41.61009         0.40927
C         51.42191        42.34347         0.35668
C         52.66102        44.47744         0.58106
C         51.42268        43.76915         0.42280
C         52.67370        45.89468         0.64031
C         51.43441        46.62520         0.51384
C         51.40615        48.04201         0.52926
C         55.15715        27.37112        -0.39831
C         53.97539        26.68041        -0.35627
C         55.17105        28.80143        -0.40918
C         53.93874        29.51370        -0.38217
C         55.18295        31.63197        -0.41334
C         53.94604        30.94428        -0.38890
C         55.21670        33.14227        -0.49678
C         53.91202        33.79670        -0.10135
C         55.11680        35.85263         0.48694
C         53.90723        35.16039         0.23652
C         55.10330        37.27907         0.64207
C         53.86521        38.00568         0.37769
C         55.13443        40.17240         0.69777
C         53.95221        39.48214         0.06278
C         55.12127        41.61628         0.77404
C         53.90034        42.32417         0.60476
C         55.10837        44.45018         0.91233
C         53.88739        43.74501         0.69672
C         55.09369        45.87182         0.97151
C         53.91724        46.56827         0.83106
C         56.38739        29.51707        -0.46618
C         56.38427        30.90561        -0.47663
C         56.38335        33.77896         0.21583
C         56.33835        35.07835         0.58716
C         56.24324        38.00769         0.99115
C         56.22733        39.41752         1.08445
C         56.31665        42.34605         1.01905
C         56.31617        43.72363         1.07066
O         34.78440        33.67657        -0.63416
O         33.94075        43.06011         1.14899
O         47.05493        35.62916        -1.90895
O         29.42212        37.87191         1.96557
O         37.37126        37.92608         1.91752
O         40.49459        32.31425         2.08288
O         36.22822        35.75705         2.32078
O         44.90744        26.91008         1.41460
O         47.03261        27.06202        -1.73526
O         42.16890        24.68197         1.39719
O         33.03606        41.49984        -2.08620
H         32.13179        41.36384        -2.46880
O         30.28612        41.36069        -2.11356
H         29.47454        40.83631        -2.29123
O         34.27996        46.79257         1.18121
H         33.46106        47.17892         1.55533
O         33.78905        34.98369         2.69379
H         34.64292        35.13543         3.16491
O         42.43490        44.43739        -1.98067
H         43.26653        44.53198        -2.48936
O         42.67025        41.69495        -2.15812
H         41.78995        41.34072        -2.40562
O         43.74793        22.77664        -2.41717
H         42.93402        22.34249        -2.75154
O         35.40053        29.08695        -1.66822
H         34.65642        28.58272        -2.06214
O         48.86701        26.28401         1.30019
H         48.99689        27.11661         1.80042
O         30.38612        33.30935        -1.35786
H         29.74942        32.63258        -1.71046
O         41.38065        51.09038         1.69883
H         40.55458        51.59158         1.87067
O         39.21063        42.57439         1.90013
H         39.08264        41.67908         2.28236
O         52.44480        35.74017         2.03148
H         53.23480        36.14945         2.44479
O         50.40149        33.12073        -2.30813
H         50.20630        34.03479        -2.60694
O         28.93520        30.97874        -1.48228
H         29.53032        30.28110        -1.83409
O         35.25263        31.57530         2.34021
H         35.27532        30.63134         2.60642
O         31.82230        38.61012         2.34375
H         30.92835        38.61683         2.76275
O         49.10839        25.39013        -2.25639
H         48.31431        25.90973        -2.53033
O         34.16971        39.06532        -1.62842
H         33.89742        39.87950        -2.12731
O         37.53310        35.93262        -1.10186
H         37.33209        35.00828        -1.36332
O         39.18068        22.81348        -2.39363
H         39.17385        23.79288        -2.45897
O         37.75377        28.53480         2.09016
H         38.04161        29.36977         2.52010
O         35.16417        24.52298        -2.10208
H         35.92367        24.00302        -2.44353
O         29.12531        43.91563         1.48360
H         28.30277        43.47953         1.79597
O         41.82368        43.92435         1.59098
H         41.02016        43.55712         2.03272
O         41.47143        20.57915         1.27873
H         42.18695        21.11544         1.68131
O         36.82536        42.25685        -1.88336
H         36.78034        41.30271        -2.11484
O         55.40562        33.44804        -1.92776
H         55.42315        34.42503        -2.01439
O         35.15244        45.82491        -2.22582
H         35.88909        45.28519        -2.58425
O         54.19992        39.56260        -1.39613
H         53.42120        39.16653        -1.84251
H         27.02638        26.85555         1.05026
H         25.78902        28.99953         1.11788
H         25.78948        31.45466         1.15212
H         25.67732        33.33010         0.67468
H         25.67196        35.76444         0.48933
H         25.79499        37.53168        -0.50976
H         25.79487        39.97480        -0.73327
H         25.67054        41.91496        -0.14183
H         25.66708        44.36742        -0.44199
H         26.94258        46.49954        -0.77916
H         29.12878        25.60879         0.78600
H         29.07900        47.70478        -0.88221
H         32.80513        23.50176        -0.17018
H         30.72813        24.68388         0.30774
H         32.87649        49.76322        -1.44967
H         30.76131        48.58095        -1.27021
H         34.46104        22.52628         0.00101
H         34.50032        50.80012        -1.09815
H         36.60352        21.34767        -0.12972
H         36.59602        52.02049        -0.96364
H         40.14428        19.15062        -0.72671
H         38.17400        20.45225        -1.28401
H         40.39022        54.17452        -0.71074
H         38.24703        52.97427        -0.78429
H         42.70280        19.11509        -0.78393
H         42.85417        54.19581        -0.38628
H         44.71567        20.32902        -1.33965
H         44.94645        52.97473        -0.04375
H         48.58698        22.46212        -0.84948
H         46.44696        21.27828        -0.93322
H         48.64825        50.78347         0.23739
H         46.56716        52.01271         0.10807
H         50.30271        23.39578        -0.33633
H         50.25757        49.83438         0.42818
H         52.33858        24.64528         0.06462
H         52.33743        48.61351         0.63267
H         56.11493        26.83165        -0.42716
H         53.99720        25.58265        -0.35678
H         56.03956        46.40903         1.13191
H         53.94587        47.66442         0.88168
H         57.33741        28.96573        -0.51218
H         57.34275        31.43721        -0.54968
H         57.32435        33.22073         0.32057
H         57.23715        35.55078         1.00862
H         57.17483        37.48579         1.24764
H         57.12729        39.90900         1.48003
H         57.26869        41.81107         1.13498
H         57.25472        44.27225         1.23494
