         349
 CSIRO Nanostructure Databank - Neutral Graphene Oxide Data Set
C          1.57761         4.12516         2.95730
C          0.27482         4.65728         2.68482
C          1.30844         6.62970         1.60272
C          0.10213         5.79566         1.95607
C          1.05584         7.75803         0.55046
C         -0.12550         8.64715         0.89878
C          1.14528        10.69154         0.25346
C         -0.11276         9.97428         0.71192
C          1.12654        12.18930         0.41078
C         -0.01923        12.89749         0.17257
C          1.16936        15.04314         0.09376
C         -0.02618        14.31572         0.10962
C          1.18427        16.45871        -0.24077
C          0.00732        17.12307        -0.64335
C          1.24125        19.17864        -1.03395
C          0.04105        18.43761        -1.07426
C          1.27858        20.55795        -1.50873
C          0.29287        21.04337        -2.33191
C          1.36153        23.21638        -2.52684
C          0.35876        22.35750        -2.87918
C          1.34467        25.49962        -2.31969
C          0.12666        26.18996        -2.24651
C          1.14620        27.76044        -0.71075
C          0.00609        27.27104        -1.37903
C          1.03802        28.84078         0.25684
C          3.96001         3.95308         2.33040
C          2.68584         4.59160         2.25292
C          3.44770         5.86475         0.35817
C          2.49690         5.70269         1.31294
C          3.44616         8.02808        -0.12882
C          2.31536         8.59754         0.43531
C          3.65782        10.72279         0.77475
C          2.32026        10.00972         0.98035
C          3.67190        12.19020         0.52464
C          2.38367        12.93880         0.80047
C          3.63424        15.03412         0.14294
C          2.40859        14.36175         0.29543
C          3.65453        16.46538        -0.02620
C          2.40795        17.18266        -0.20155
C          3.61642        19.37716        -0.29354
C          2.40134        18.57137        -0.51130
C          3.68428        20.78540        -0.74645
C          2.39399        21.43853        -1.08119
C          3.69436        23.66632        -1.44350
C          2.40914        22.88878        -1.53447
C          3.70856        25.04763        -1.52078
C          2.48518        25.87694        -1.59236
C          3.60580        27.82890        -0.48501
C          2.39401        27.11315        -0.90073
C          3.47528        29.01743         0.45277
C          2.11460        29.36274         0.89526
C          6.31177         3.75660         1.61607
C          5.01571         4.28337         1.47798
C          5.98822         6.20910         0.24305
C          4.78206         5.19418         0.29634
C          5.98984         7.71573         0.06586
C          4.74767         8.52296         0.01587
C          6.00001        10.65629        -0.30717
C          4.86749         9.94043         0.38574
C          6.16210        12.07884         0.27335
C          4.84330        12.84692         0.24581
C          6.07091        14.97881        -0.20130
C          4.87752        14.29866         0.08091
C          6.10915        16.40783        -0.25707
C          4.88650        17.13224        -0.13408
C          6.16614        19.29953        -0.44270
C          4.92128        18.60355        -0.11329
C          6.14612        20.70017        -0.69921
C          4.88775        21.44828        -0.87085
C          6.14573        23.54540        -1.18376
C          4.93158        22.90203        -1.17731
C          6.30400        25.03882        -1.39421
C          4.98197        25.79890        -1.33713
C          6.06886        27.66376         0.09712
C          4.92956        27.16369        -0.68926
C          5.92250        28.82369         0.93891
C          4.67184        29.42042         1.18795
C          8.65984         3.64691         1.02753
C          7.41331         4.24712         0.88024
C          8.51779         6.31053        -0.08110
C          7.27166         5.44487        -0.06332
C          8.50220         7.66488        -0.30948
C          7.27120         8.45690        -0.22832
C          8.52002        10.61412        -0.49266
C          7.29339         9.84307        -0.29445
C          8.54783        11.98707        -0.53124
C          7.28709        12.75720        -0.46853
C          8.59816        14.94658        -0.62801
C          7.29814        14.23956        -0.58273
C          8.58720        16.37055        -0.53134
C          7.35195        17.09811        -0.41687
C          8.61464        19.22489        -0.55349
C          7.37122        18.53997        -0.48152
C          8.60826        20.64999        -0.69478
C          7.38352        21.34848        -0.86038
C          8.64026        23.49785        -0.81878
C          7.42985        22.77431        -1.33309
C          8.60160        24.87773        -0.39094
C          7.38748        25.62231        -0.48806
C          8.37540        27.44360         0.87208
C          7.27658        26.91456         0.12604
C          8.33515        28.75048         1.45008
C          7.08457        29.38347         1.54580
C         11.06150         3.54161         0.59016
C          9.84678         4.19248         0.45928
C         11.08158         6.22248        -0.49265
C          9.76534         5.51023        -0.21811
C         11.07564         7.70170        -0.60252
C          9.75880         8.36106        -0.71968
C         11.06092        10.57209        -0.66933
C          9.77271         9.87834        -0.79901
C         11.03192        12.05256        -0.37156
C          9.79765        12.72333        -0.98410
C         11.05532        14.90521        -0.69815
C          9.80048        14.22569        -0.71242
C         11.06497        16.33510        -0.62700
C          9.83515        17.06344        -0.57206
C         11.09239        19.17843        -0.47506
C          9.85331        18.49281        -0.53261
C         11.07035        20.65266        -0.15372
C          9.84660        21.36988        -0.67224
C         11.08341        23.61501        -0.68373
C          9.83425        22.77369        -0.71726
C         10.99756        24.61409         0.48095
C          9.71075        25.39331         0.31625
C         10.88431        27.38594         1.46967
C          9.57746        26.64744         1.02426
C         10.81200        28.85015         1.65695
C          9.54960        29.42874         1.81087
C         13.53439         3.53037         0.60882
C         12.32444         4.18838         0.32456
C         13.55506         6.37181        -0.01584
C         12.30496         5.54676        -0.09539
C         13.52955         7.62180        -0.92322
C         12.24949         8.41186        -0.69953
C         13.51421        10.59559        -0.69486
C         12.25744         9.86889        -0.69821
C         13.51639        11.99508        -0.80021
C         12.31506        12.76340        -0.73219
C         13.55478        14.91924        -0.79199
C         12.31084        14.17645        -0.76968
C         13.53635        16.32390        -0.70478
C         12.30743        17.04879        -0.60879
C         13.57111        19.20316        -0.34958
C         12.31114        18.47770        -0.49937
C         13.56869        20.67089        -0.33223
C         12.36713        21.35106        -0.45695
C         13.62346        23.54720        -0.31055
C         12.36411        22.79557        -0.68143
C         13.52473        24.91755         0.21683
C         12.23854        25.50251         0.54280
C         13.37737        27.56056         1.34562
C         12.16272        26.76961         1.07402
C         13.29075        29.02971         1.52296
C         12.01737        29.60855         1.69372
C         16.07964         3.46174         0.31912
C         14.83897         4.27302         0.60845
C         16.03883         6.22061        -0.51266
C         14.74488         5.46496        -0.35342
C         16.01713         7.67143        -0.64015
C         14.82177         8.37059        -0.66070
C         16.05155        10.51685        -0.76609
C         14.78643         9.84655        -0.35077
C         16.08112        11.95731        -0.97543
C         14.78875        12.73407        -1.00923
C         16.03101        14.85382        -0.61711
C         14.82087        14.20571        -0.77619
C         16.10936        16.32078        -0.64759
C         14.79878        17.08373        -0.68559
C         16.03941        19.21146        -0.08992
C         14.75895        18.51100        -0.31300
C         16.07526        20.68927        -0.21022
C         14.81745        21.39513        -0.20797
C         16.01819        23.50345         0.33319
C         14.83586        22.78516        -0.01496
C         15.99137        24.89413         0.49885
C         14.71643        25.56395         0.50732
C         15.86205        27.81856         0.64747
C         14.69484        26.94296         1.02800
C         15.79050        29.15228         1.38653
C         14.50068        29.73275         1.63912
C         18.51532         3.43065         0.09412
C         17.22502         4.08765        -0.09797
C         18.46854         6.16500        -0.87744
C         17.20479         5.49459        -0.51512
C         18.47208         7.64381        -0.93113
C         17.32053         8.34328        -0.70836
C         18.52657        10.53592        -1.09251
C         17.34926         9.83171        -0.44750
C         18.61395        11.98358        -0.83373
C         17.33566        12.65520        -0.54272
C         18.61674        14.85059        -0.48037
C         17.31284        14.14164        -0.35948
C         18.63652        16.25661        -0.37427
C         17.33418        16.91265         0.06593
C         18.56299        19.18778        -0.42591
C         17.32851        18.45288         0.01035
C         18.55912        20.68808        -0.28974
C         17.26620        21.35946        -0.05238
C         18.55232        23.46162         0.81320
C         17.27403        22.74411         0.46437
C         18.50315        24.96322         1.17550
C         17.19937        25.66773         0.77177
C         18.38909        27.84438         0.86317
C         17.15460        27.03817         0.82639
C         18.27370        29.31490         1.29083
C         16.95069        29.82783         1.68640
C         19.68828         4.09984         0.03769
C         20.90055         6.35371        -0.12480
C         19.77373         5.47043        -0.51035
C         20.90680         7.66529        -0.41603
C         19.82922         8.25558        -1.29869
C         21.03919        10.57013        -1.31095
C         19.79704         9.78212        -1.36483
C         21.02678        11.91528        -1.12564
C         19.80618        12.67049        -0.89038
C         21.03043        14.85046        -0.71925
C         19.82120        14.12592        -0.68710
C         21.04919        16.23312        -0.57780
C         19.86123        16.95993        -0.39422
C         21.07320        19.24230        -0.09708
C         19.87565        18.45525        -0.46976
C         21.05820        20.57427         0.13400
C         19.85857        21.42072        -0.06434
C         20.92813        23.65380         0.18052
C         19.84213        22.85516         0.37586
C         20.87862        25.08152         0.37508
C         19.74308        25.73478         0.75971
C         20.81403        27.94641         1.22839
C         19.70168        27.18354         0.95292
C         20.70458        29.31084         1.65903
C         19.50286        29.94198         1.78570
O         19.29370         5.51357        -1.89261
O          5.12322        27.00801        -2.16065
O         18.86883        10.16429        -2.46091
O         14.25102        26.98557         2.41507
O          1.92861        22.52258        -0.19090
O          6.10383         7.02733         1.42561
O         17.85324        22.69885         1.85577
O          3.30390         6.75452        -0.71363
O         19.13640        18.81164        -1.70612
O          9.62397         9.05689        -2.00700
O         17.22431        13.22419         0.80127
O          4.20728        19.18309         1.03628
O         17.22079        16.49672         1.40312
O         18.34113        28.92725        -0.13911
O         19.27343        21.32654        -1.41272
O         15.67494        16.91551        -1.89277
O         10.32737         5.51990        -1.56678
O         13.25499        23.29044        -1.73607
O          1.42533        24.42096        -3.21863
O          4.64548        10.27588         1.80667
O         10.11790        26.60706         2.41259
O          3.63670        29.19544        -1.01757
O          6.99393        13.35455        -1.78043
O         16.71248        18.94344         1.22529
O         15.49021        12.39690        -2.26688
O          2.01218        10.02840         2.37912
H          2.79313         9.67539         2.85726
O          7.17415         4.96478        -1.42684
H          8.04902         4.61012        -1.69452
O          6.81643        25.20809        -2.75853
H          6.54907        26.12023        -3.03056
O          2.32868        13.04826         2.27408
H          3.10215        13.58049         2.55835
O          0.75001         7.11778        -0.70196
H          0.81567         7.79367        -1.40866
O          4.78759         4.37096        -0.88488
H          4.51915         4.93167        -1.64322
O          1.68184         7.34677         2.81511
H          1.77004         6.68588         3.53444
O         20.13862         7.83366        -2.65022
H         19.54227         8.34015        -3.24531
O         14.81691         9.90434         1.16248
H         14.77642        10.85276         1.41732
O         10.93441        20.72503         1.31588
H         10.10433        20.26337         1.56148
O         14.45915         4.87981        -1.65974
H         15.23284         4.33610        -1.92238
O         18.51707        25.03990         2.62879
H         18.04401        24.23766         2.95535
O         10.86967        12.19561         1.07767
H         11.63148        11.76086         1.51524
O          1.35882        10.41886        -1.16624
H          0.69704        10.93046        -1.67807
O         15.05488         4.77208         1.98501
H         15.01477         3.99897         2.58683
O         13.64448         6.90515         1.32527
H         14.03777         6.21091         1.91055
O         13.49835         7.26965        -2.32185
H         13.88744         6.36848        -2.43738
O          7.64082        22.66242        -2.79048
H          7.56734        23.58229        -3.14941
O          6.62089        12.01106         1.63788
H          5.97758        11.44379         2.13389
O          9.86900        12.57266        -2.42126
H          9.01610        12.88977        -2.79265
O          5.57917        10.78129        -1.68609
H          6.16325        11.43091        -2.13715
O         15.72800        28.11014        -0.76978
H         16.55891        28.57576        -1.03058
O         17.56700         9.97265         0.99825
H         16.71685         9.72058         1.43713
O         10.93947        23.89382         1.73307
H         10.78451        24.55739         2.44395
O         11.04604        24.43336        -1.87609
H         11.89491        24.27891        -2.35948
H          1.67676         3.25112         3.61654
H         -0.60084         4.10527         3.05760
H         -0.91123         6.16298         1.74034
H         -1.05403         8.15950         1.23374
H         -1.01421        10.56286         0.94206
H         -0.96258        12.37091        -0.03757
H         -0.98980        14.81509        -0.04938
H         -0.95259        16.59171        -0.66434
H         -0.88994        18.91088        -1.41191
H         -0.53784        20.39842        -2.64650
H         -0.38011        22.67252        -3.62630
H         -0.72811        25.84284        -2.84082
H         -0.96171        27.77502        -1.24919
H          0.02475        29.16997         0.53160
H          4.11763         3.18667         3.10519
H          1.98957        30.09331         1.70757
H          6.49638         2.97719         2.37254
H          4.60265        30.23764         1.92069
H          8.74484         2.72720         1.62700
H          7.00006        30.34571         2.07148
H         11.08056         2.54650         1.05950
H          9.48084        30.49705         2.06365
H         13.50785         2.49802         0.98930
H         11.94200        30.69248         1.86808
H         16.13835         2.43532         0.71600
H         14.46735        30.79341         1.93425
H         18.49611         2.39128         0.45564
H         16.90545        30.78700         2.22552
H         20.62251         3.60299         0.34148
H         21.69911         5.91523         0.49387
H         21.73778         8.30308        -0.07915
H         21.99996        10.04308        -1.40647
H         21.98931        12.44427        -1.10719
H         21.98535        14.32982        -0.86667
H         22.01210        16.76054        -0.62593
H         22.00041        18.68745         0.11212
H         21.97272        21.06310         0.50309
H         21.86907        23.21737        -0.18377
H         21.78649        25.65634         0.14165
H         21.80618        27.47436         1.26490
H         21.62048        29.81730         1.99561
H         19.43503        30.92731         2.26950
