         314
 CSIRO Nanostructure Databank - Neutral Graphene Oxide Data Set
C         30.90040        57.07039        -2.58833
C         31.23358        58.40489        -2.97646
C         30.19885        59.16712        -3.59274
C         31.53188        61.18833        -3.57100
C         30.36012        60.50596        -3.91983
C         33.04159        52.91334        -0.87912
C         33.08051        54.28604        -1.02995
C         31.85927        54.93125        -1.50810
C         33.68591        57.13240        -1.78081
C         31.86926        56.08731        -2.27778
C         33.49270        58.52012        -1.84593
C         32.45793        59.10991        -2.62306
C         33.71510        61.27114        -2.44869
C         32.56240        60.52778        -2.87631
C         35.47976        48.64886        -0.29857
C         35.36815        50.04690        -0.01817
C         34.17805        50.72916        -0.31495
C         35.18891        52.94168         0.52915
C         34.03069        52.16705        -0.10372
C         35.30096        54.35772         0.12064
C         34.30697        55.00825        -0.61133
C         35.55144        57.18371        -0.27505
C         34.47107        56.43856        -0.83674
C         35.55264        58.65456        -0.34348
C         34.43503        59.36783        -1.09334
C         35.82536        61.42945        -1.12697
C         34.66596        60.74086        -1.58246
C         37.71440        44.35947         0.53526
C         37.78006        45.69428         0.26542
C         36.71441        46.47661        -0.47410
C         37.78808        48.64494         0.43008
C         36.65737        47.94806        -0.08007
C         37.68572        50.01815         0.76472
C         36.50065        50.72645         0.54193
C         37.73688        52.85968         1.01779
C         36.39351        52.14500         1.08548
C         37.73303        54.34192         0.99911
C         36.51268        55.09326         0.55010
C         37.92532        57.20827         0.35212
C         36.68170        56.51812         0.19430
C         37.97896        58.62196         0.08535
C         36.83953        59.34810        -0.21951
C         38.08619        61.47013        -0.11807
C         36.89433        60.77434        -0.49374
C         40.29346        40.03371         0.78239
C         40.28586        41.46075         1.28552
C         39.03922        42.27171         0.89130
C         39.92817        44.47784         1.60841
C         38.86407        43.62198         1.07978
C         40.14276        45.74034         1.14959
C         39.05364        46.41844         0.44139
C         40.24631        48.57547         1.22906
C         39.08145        47.94675         0.55837
C         40.11390        49.97055         1.69154
C         38.83466        50.70772         1.42333
C         40.09357        52.92151         1.87662
C         38.87746        52.18676         1.32785
C         40.28054        54.27009         1.21522
C         39.04967        55.02087         0.80608
C         40.35659        57.12884         0.86666
C         39.11192        56.48806         0.67291
C         40.50609        58.55445         0.45544
C         39.30929        59.30051        -0.14150
C         40.41667        61.46900         0.63457
C         39.25959        60.78393         0.20498
C         42.60344        35.93990        -0.59335
C         42.58987        37.32059        -0.43841
C         41.43347        37.98207         0.06894
C         42.52464        40.17211        -0.34465
C         41.38692        39.38880         0.22147
C         42.54945        41.63269        -0.06288
C         41.56807        42.20372         0.89330
C         43.02047        44.27294         1.28041
C         41.84061        43.38323         1.48230
C         42.75932        45.74220         0.96638
C         41.45364        46.44851         1.03346
C         42.71481        48.53846         1.65495
C         41.45941        47.90557         1.32140
C         42.68714        49.93225         2.15499
C         41.37970        50.69951         2.07347
C         42.58646        52.87986         2.17282
C         41.41141        52.16583         1.92998
C         42.57589        54.34109         2.14149
C         41.46881        55.04700         1.61116
C         42.53955        57.24779         2.14122
C         41.46822        56.45114         1.42543
C         42.76288        58.66002         1.69173
C         41.68232        59.33685         0.94424
C         42.76992        61.49277         1.39264
C         41.61431        60.81651         0.99032
C         45.04767        33.10033        -0.93894
C         43.84070        33.75007        -0.85482
C         45.07087        35.90095        -0.96214
C         43.74732        35.20402        -1.23115
C         45.05911        37.38407        -0.87653
C         43.78459        38.11824        -0.74492
C         45.06114        40.25781        -0.80367
C         43.80707        39.49159        -0.68190
C         45.07411        41.66218        -0.61005
C         43.82140        42.39060        -0.31611
C         45.21662        44.52605         0.13858
C         43.94450        43.78215         0.19734
C         45.18308        45.89967         0.46614
C         44.01875        46.54326         0.99436
C         45.19984        48.73857         1.30891
C         43.95164        47.90445         1.37678
C         45.32033        50.00451         2.14006
C         43.97638        50.69177         2.41463
C         44.84390        52.93651         3.05277
C         43.81734        52.17592         2.54544
C         44.87977        54.36361         2.98586
C         43.75372        55.08950         2.50724
C         45.01836        57.22243         2.61898
C         43.82093        56.50006         2.36500
C         45.16302        58.64604         2.32066
C         43.93785        59.34466         1.93768
C         45.17738        61.45800         1.84731
C         43.96104        60.78930         1.72524
C         46.26665        33.76404        -1.23962
C         47.52355        35.88781        -1.39012
C         46.33565        35.17818        -1.29595
C         47.54854        37.35825        -1.50734
C         46.25655        38.14161        -1.33161
C         47.53687        40.27796        -1.14961
C         46.30105        39.59097        -1.06226
C         47.49945        41.70367        -0.95776
C         46.29517        42.38507        -0.60121
C         47.62491        44.46007        -0.21013
C         46.37631        43.81180        -0.29327
C         47.65703        45.93144        -0.07501
C         46.38041        46.70473         0.18785
C         47.75947        48.77603         0.85569
C         46.41493        48.13037         0.67278
C         47.81558        50.00813         1.64528
C         46.69442        50.64962         2.15597
C         48.06317        52.70685         2.55471
C         46.92304        51.91436         2.81503
C         48.12473        54.15125         2.78030
C         46.03367        55.09168         3.31989
C         47.99680        57.32627         2.44821
C         46.07360        56.46650         3.17519
C         47.70410        58.63921         2.00419
C         46.40567        59.30285         2.17059
C         47.58846        61.43363         1.65670
C         46.39664        60.73663         1.91424
C         48.76234        38.11959        -1.24197
C         50.08498        40.06201        -0.74240
C         48.79789        39.50434        -1.13490
C         50.47955        41.37151        -0.98794
C         48.66676        42.49691        -1.11185
C         50.13873        44.30712        -0.23219
C         48.84714        43.76592        -0.49726
C         50.17297        45.61468         0.44426
C         48.92115        46.49360         0.47665
C         50.30329        48.43470         1.27993
C         49.04799        47.97547         0.66650
C         50.43485        49.83830         1.76583
C         49.15817        50.58437         1.94284
C         50.30096        52.77709         1.55941
C         49.20102        52.05309         2.00410
C         50.02459        54.21245         1.26244
C         49.00520        54.97695         2.07417
C         49.88526        57.12838         0.97912
C         48.97656        56.46171         1.88216
C         49.85580        58.54355         0.85754
C         48.77221        59.30564         1.35548
C         49.95397        61.45085         0.99506
C         48.77665        60.75738         1.31292
C         51.51046        42.17827        -0.45786
C         52.60676        44.32665        -0.08212
C         51.40368        43.60069        -0.31302
C         52.67642        45.70045         0.29754
C         51.43667        46.29418         0.71057
C         53.14796        48.65057         1.04712
C         51.34746        47.53157         1.39662
C         52.86401        49.99545         0.85088
C         51.75672        50.68819         1.64183
C         52.48951        52.82493         0.42560
C         51.48476        52.11268         1.11245
C         52.36940        54.24236         0.17760
C         51.07087        54.91085         0.45228
C         52.11230        57.11097        -0.39144
C         50.94459        56.38768         0.24090
C         52.10651        58.61173        -0.41936
C         50.91811        59.32174         0.16123
C         52.26548        61.41966         0.18034
C         51.08144        60.76278         0.49152
C         53.88335        46.43559         0.12560
C         54.94387        48.59875        -0.54110
C         54.01491        47.86392         0.21407
C         54.88737        50.02110        -0.56448
C         53.77756        50.72172         0.04049
C         54.73299        52.86666        -0.63882
C         53.66826        52.13903        -0.07139
C         54.70801        54.29971        -0.62526
C         53.47300        54.97936        -0.27397
C         54.57062        57.15707        -0.70223
C         53.42370        56.41795        -0.46212
C         54.53628        58.59742        -0.83617
C         53.38445        59.33067        -0.57761
C         54.61121        61.47450        -0.52299
C         53.42230        60.76425        -0.36546
C         55.91304        50.77070        -1.17403
C         57.01160        52.93515        -1.56939
C         55.89477        52.18212        -1.14697
C         57.03560        54.34096        -1.43555
C         55.85472        55.01753        -0.97066
C         57.04261        57.21390        -1.35027
C         55.92293        56.48358        -0.64645
C         57.01415        58.60646        -1.45751
C         55.72682        59.30483        -1.32338
C         57.08298        61.48850        -1.18952
C         55.76476        60.87963        -1.17352
C         58.20009        55.07651        -1.76520
C         59.36318        57.22496        -2.14326
C         58.22104        56.49889        -1.74114
C         59.38190        58.63812        -2.11310
C         58.18175        59.34706        -1.78960
C         59.44869        61.45880        -1.85995
C         58.21205        60.78430        -1.64345
C         60.57187        59.37239        -2.38222
C         60.59034        60.75970        -2.24980
O         45.52695        49.01370        -0.10093
O         41.66996        58.74950        -0.43903
O         41.85102        50.14232         3.35351
O         42.01003        41.13618        -1.33434
O         39.09979        50.16241         2.76558
O         40.92063        43.89727         2.43527
O         55.44762        60.17991        -2.43248
O         39.45079        47.24009        -0.69230
O         49.27811        45.72569         1.64999
O         48.53860        48.82443        -0.39778
O         49.65620        42.04299        -1.94620
O         44.71856        49.96831         3.45937
O         34.00415        52.63536         1.32861
O         42.04031        46.03573        -0.27117
O         49.84599        49.95240         3.12529
O         51.03726        59.11770        -1.28899
O         51.02988        56.59785        -1.21633
O         49.89672        54.29026        -0.20858
O         47.23303        54.53978         3.79885
O         33.14304        56.37608        -2.81815
O         45.95008        52.36671         3.69018
O         39.89533        54.32011        -0.18875
O         36.85112        54.91373         2.00029
O         52.49193        47.97184         2.07786
O         47.28565        57.00510         3.61466
O         43.45710        43.55571        -1.15462
O         34.40660        59.25683         0.36564
O         46.96389        46.60148        -1.15850
O         45.23328        36.55104         0.34390
O         46.72695        37.81279        -2.67036
O         37.02312        46.39861        -1.87774
H         37.94835        46.72104        -1.98416
O         56.31088        56.55150         0.78687
H         57.13449        56.02725         0.88737
O         39.76277        53.18721         3.26987
H         39.51851        52.32878         3.68342
O         43.53742        35.26190        -2.68618
H         44.24302        34.72779        -3.10899
O         52.25487        50.87793         2.98411
H         51.50315        50.69299         3.59791
O         39.46754        59.26094        -1.59261
H         40.43992        59.26517        -1.76308
O         40.25797        41.31304         2.73364
H         40.29910        42.22039         3.11625
O         41.95611        57.40764         3.50640
H         42.66730        57.74046         4.09538
O         43.79028        44.22890         2.51489
H         43.16584        44.34875         3.26224
O         36.16643        51.97881         2.51151
H         35.19323        52.05473         2.65484
H         29.83206        56.80986        -2.53302
H         29.25568        58.65981        -3.84284
H         31.63496        62.25857        -3.80013
H         29.55113        61.04228        -4.43499
H         32.20059        52.34817        -1.30826
H         30.90351        54.47325        -1.21280
H         33.81794        62.31141        -2.79394
H         34.60104        48.12211        -0.69925
H         33.37176        50.19603        -0.84007
H         35.93724        62.49471        -1.38084
H         36.80135        43.79501         0.29063
H         35.70830        46.00927        -0.32920
H         38.07321        62.57072        -0.08402
H         39.45236        39.40843         1.12256
H         38.22291        41.72035         0.39676
H         40.37471        62.56646         0.71933
H         41.70225        35.36735        -0.32494
H         40.56860        37.37685         0.37935
H         42.78938        62.59280         1.37996
H         45.08335        32.01369        -0.76898
H         42.92086        33.19016        -0.63197
H         45.21554        62.54707         1.69559
H         47.18602        33.17405        -1.36126
H         48.48082        35.34700        -1.44129
H         47.55612        62.53019         1.57382
H         49.68830        37.55408        -1.05774
H         50.77970        39.38521        -0.22324
H         49.98938        62.54426         1.10976
H         52.41592        41.69717        -0.05996
H         53.55591        43.79452        -0.24993
H         52.33413        62.50091         0.37404
H         54.70783        45.89945        -0.37170
H         55.70794        48.08161        -1.13919
H         54.68643        62.50389        -0.14315
H         56.78051        50.24996        -1.60529
H         57.90128        52.41408        -1.95262
H         57.19277        62.53123        -0.85576
H         59.09564        54.53536        -2.10332
H         60.27021        56.67870        -2.44137
H         59.48705        62.55084        -1.74011
H         61.48590        58.83037        -2.66333
H         61.52274        61.31010        -2.43899
