         234
 CSIRO Nanostructure Databank - Neutral Graphene Oxide Data Set
C          1.61728         2.15656         2.14678
C          1.47335         3.53699         1.78299
C          2.69211         1.40926         1.76555
C          2.43177         4.20007         1.05153
C          1.22625         6.34801         0.72794
C          1.08469         7.73366         0.35654
C          2.42061         5.66020         0.87496
C          2.00559         8.68802         0.71707
C          1.10834        10.80096        -0.14090
C          1.16217        12.18812        -0.37596
C          2.22116        10.05492         0.26654
C          2.32527        12.89589        -0.11826
C          1.22673        15.15326        -0.09434
C          1.30072        16.53435        -0.18861
C          2.39125        14.35131        -0.19545
C          2.53665        17.18734        -0.40572
C          2.62576        18.62101        -0.49430
C          3.65672         1.92621         0.78929
C          3.50876         3.41602         0.40851
C          4.97806         1.28801         0.65892
C          4.72286         4.12464        -0.11039
C          3.71509         6.29188         0.61214
C          3.89127         7.70765         0.83284
C          4.77723         5.58749         0.08576
C          4.86046         8.51144         0.27217
C          3.53563        10.66169         0.34137
C          3.53209        12.14185         0.27782
C          4.78934         9.97085         0.32058
C          4.86470        12.84818         0.06071
C          3.63188        15.00009        -0.41663
C          3.71588        16.40455        -0.53661
C          4.84131        14.17679        -0.60281
C          4.99398        17.05559        -0.77168
C          3.82420        19.24771        -0.69169
C          5.05038        18.50697        -0.83505
C          6.09243         1.92683         0.14739
C          6.02097         3.35178        -0.27758
C          7.36390         1.27694         0.06588
C          7.30016         4.09781        -0.30172
C          5.98532         6.31427        -0.34749
C          6.03957         7.83271        -0.32137
C          7.26576         5.56573        -0.22622
C          7.32612         8.54811        -0.28351
C          6.04433        10.66223         0.15740
C          6.09986        12.05979        -0.01839
C          7.31880         9.92307         0.02157
C          7.32921        12.77759        -0.13067
C          6.16583        14.84295        -0.91157
C          6.15599        16.31842        -0.94506
C          7.40480        14.12933        -0.50510
C          7.42453        16.98946        -1.21908
C          6.26665        19.16550        -1.00547
C          7.49438        18.45605        -1.15084
C          8.55004         1.96741        -0.24925
C          8.51027         3.42281        -0.36159
C          9.79374         1.31782        -0.37993
C          9.71170         4.13340        -0.73268
C          8.53179         6.34018        -0.53177
C          8.57451         7.85452        -0.83500
C          9.58274         5.46292        -1.02903
C          9.86368         8.46415        -0.23363
C          8.53706        10.63574         0.12732
C          8.52897        12.09403         0.46783
C          9.80446         9.90785         0.25569
C          9.83769        12.80338         0.23923
C          8.64704        14.82723        -0.44375
C          8.73463        16.20368        -0.98303
C          9.83458        14.18148        -0.01509
C          9.96745        16.98475        -0.84648
C          8.73983        19.07662        -1.20105
C          9.96305        18.34339        -1.09587
C         11.03514         1.99715        -0.56743
C         11.08203         3.48241        -0.93131
C         12.21801         1.29274        -0.46925
C         12.16958         4.22191        -0.06277
C         11.44564         6.57571        -0.87132
C         11.23684         7.88868        -0.40442
C         12.43095         5.72187        -0.34801
C         12.34440         8.53309         0.18850
C         11.06967        10.66405         0.38344
C         11.06421        12.09002         0.38727
C         12.28922         9.96316         0.42412
C         12.30834        12.80824         0.48898
C         11.06846        15.02137         0.26724
C         11.24329        16.18404        -0.72323
C         12.35272        14.23097         0.38899
C         12.45091        17.01853        -0.36272
C         11.25694        19.11499        -1.21505
C         12.46686        18.39339        -0.66557
C         13.52782         1.95818        -0.27864
C         13.50841         3.44223        -0.02693
C         14.77572         1.17239        -0.53416
C         14.75337         4.27323        -0.00543
C         13.51261         6.37708         0.28168
C         13.54970         7.78911         0.38384
C         14.71125         5.60314         0.64729
C         14.81454         8.46112         0.57372
C         13.51400        10.67583         0.55611
C         13.51663        12.06900         0.63016
C         14.78325         9.92693         0.37920
C         14.75809        12.80791         1.04561
C         13.57598        14.94692         0.40317
C         13.60971        16.38548         0.13780
C         14.79870        14.25641         0.63083
C         14.82166        17.12618         0.32862
C         13.65441        19.10808        -0.53087
C         14.85625        18.51955        -0.06117
C         15.86978         1.73257        -1.11220
C         15.87692         3.92398        -0.70154
C         17.24918         1.31743        -1.23525
C         17.22175         4.36482        -0.40309
C         16.03423         6.31384         0.82761
C         16.02965         7.78605         0.65187
C         17.32085         5.46320         0.68640
C         17.29626         8.49865         0.56553
C         16.08102        10.68053         0.48723
C         16.04126        12.09863         0.76698
C         17.33012         9.91503         0.62186
C         17.27372        12.81515         1.06180
C         16.02274        14.94623         0.67621
C         16.01317        16.38479         0.66315
C         17.28518        14.27374         0.88331
C         17.21969        17.00050         1.03248
C         16.04147        19.31919        -0.21242
C         17.25072        19.06018         0.43872
C         18.31408         2.20730        -1.24921
C         18.33663         3.58797        -0.70964
C         19.55075         1.64392        -1.78326
C         19.69069         4.15160        -0.38363
C         18.58618         6.31678         0.52169
C         18.51891         7.79566         0.41517
C         19.81610         5.60957         0.00747
C         19.71616         8.51291         0.23155
C         18.55682        10.60420         0.69031
C         18.58733        12.05442         0.99784
C         19.75004         9.90355         0.45266
C         19.80227        12.83781         0.73766
C         18.51262        14.95152         0.86328
C         18.50970        16.40467         0.88923
C         19.76113        14.21662         0.78811
C         19.67856        17.19434         0.79037
C         18.57406        19.41270         0.13460
C         19.70075        18.63431         0.56845
C         20.73203         2.29277        -1.81123
C         20.91070         3.54308        -1.05500
C         22.03688         4.41195        -1.41462
C         20.94879         6.39906        -0.50244
C         20.97947         7.89897        -0.34188
C         22.01023         5.77544        -1.16847
C         22.18452         8.43766         0.41481
C         21.06244        10.61416         0.39757
C         21.08236        12.11444         0.49987
C         22.23446         9.74563         0.71312
C         22.30004        12.87728         0.86995
C         21.02839        14.97757         0.61881
C         20.98612        16.49383         0.65712
C         22.27185        14.21928         0.93225
C         22.20922        17.26578         0.91913
C         20.94877        19.29948         0.59084
C         22.16165        18.63525         0.87799
O         15.68854         2.99273        -1.72708
O          8.14784        16.35312        -2.32599
O         17.14443        18.26239         1.60673
O         19.62298         5.88700         1.45191
O          9.68660         8.75293         1.17957
O          5.16153         3.66189        -1.43020
O          4.25443        12.82285         1.38267
O         13.54163         2.52402         1.13426
O         21.19780        11.43951        -0.82459
O         21.09637        15.72379        -0.63931
O          3.03891         2.36654        -0.47335
O         20.61215         3.32940         0.38498
O         17.97665        12.36088         2.31010
O          5.83256         7.08282        -1.60188
O          2.95334         8.29861         1.68904
O          8.14038         6.07066         0.84739
O         15.44459        10.34627        -0.87248
O         15.23935         5.84292         1.98504
O         10.55473         6.07273        -1.81835
O          5.37844        14.17336        -1.96224
O         11.50220        15.63732        -2.04798
H         10.64418        15.37833        -2.44754
O         17.48061         4.70792         1.89689
H         16.62247         4.74695         2.38484
O          8.58333         8.05433        -2.25960
H          7.70054         7.78647        -2.60218
O         10.81825        15.64414         1.56337
H         10.72199        14.92838         2.22703
O         11.64773         4.24398         1.27776
H         12.14027         3.56254         1.79614
O          8.33274        12.19154         1.94111
H          7.48242        11.74729         2.15181
O         14.66077        12.84586         2.53547
H         15.52347        13.16773         2.87867
O         11.50744         3.57909        -2.30369
H         10.80717         3.20421        -2.87621
O         11.48037        19.41397        -2.60851
H         11.55970        18.56261        -3.08710
O         21.09005         8.41499        -1.70698
H         21.16662         9.39443        -1.66235
H          0.88283         1.73197         2.84610
H          0.64166         4.10377         2.22578
H          2.86037         0.41158         2.19703
H          0.30305         5.74647         0.71739
H          0.22039         8.00910        -0.26590
H          0.13922        10.28894        -0.22632
H          0.25049        12.71006        -0.69714
H          0.25287        14.67640         0.08399
H          0.38671        17.13794        -0.09206
H          1.70331        19.21077        -0.39086
H          5.08526         0.26139         1.04286
H          3.87051        20.34526        -0.74692
H          7.41113         0.19504         0.26235
H          6.28646        20.26572        -1.01733
H          9.83105         0.22736        -0.22632
H          8.79171        20.17520        -1.23044
H         12.18092         0.20378        -0.30171
H         11.15181        20.10399        -0.69680
H         14.83259         0.16961        -0.08609
H         13.67011        20.16829        -0.82380
H         17.46701         0.25660        -1.44076
H         16.00031        20.13959        -0.94480
H         19.46451         0.66687        -2.28250
H         18.77790        20.29674        -0.48796
H         21.59847         1.86518        -2.33684
H         22.85991         3.97653        -1.99934
H         22.84394         6.39998        -1.52032
H         23.02893         7.77043         0.64281
H         23.11961        10.18393         1.19857
H         23.23925        12.33101         1.04222
H         23.19481        14.77276         1.15724
H         23.17145        16.74733         1.02313
H         20.96530        20.38558         0.42282
H         23.08085        19.22403         1.00558
