         321
 CSIRO Nanostructure Databank - Neutral Graphene Oxide Data Set
C         30.45123        57.17897        -1.16773
C         30.47045        58.66821        -0.91266
C         29.26393        59.38002        -0.89433
C         30.46822        61.47392        -0.73398
C         29.26626        60.77629        -0.79406
C         32.80520        52.88877        -0.61794
C         32.85719        54.31784        -0.33339
C         31.72780        55.06966        -0.73826
C         32.92101        57.15876        -0.51331
C         31.71563        56.46357        -0.74569
C         32.97063        58.62568        -0.78437
C         31.68950        59.36501        -0.81833
C         32.94653        61.50892        -0.66328
C         31.69826        60.78114        -0.73516
C         35.49588        48.76724        -0.59060
C         35.25865        50.05078        -0.09588
C         34.05352        50.69024        -0.51011
C         35.32447        52.95970         0.92396
C         33.60012        51.92949        -0.00719
C         35.17267        54.44689         0.91684
C         34.02546        55.03581         0.08308
C         35.40333        57.14881        -0.14294
C         34.07027        56.43827        -0.11684
C         35.35373        58.62137         0.10384
C         34.22899        59.40707        -0.46214
C         35.40275        61.68506        -0.56366
C         34.16377        60.90984        -0.45710
C         38.27875        44.76602        -1.40613
C         38.08443        46.05425        -0.83877
C         36.87267        46.76862        -0.98055
C         37.80611        48.63533         0.30482
C         36.71284        48.04001        -0.40298
C         37.66881        49.99874         0.85866
C         36.34985        50.71644         0.70505
C         37.76360        52.87678         0.64601
C         36.43547        52.21249         0.73916
C         37.76435        54.36621         0.73588
C         36.49859        55.12134         0.70197
C         37.73149        57.21573         0.88467
C         36.52795        56.49285         0.59972
C         37.73238        58.61875         0.87832
C         36.41611        59.20942         0.73160
C         37.91116        61.58068        -0.05596
C         36.51621        61.32957         0.15775
C         40.70243        40.54684        -1.71890
C         40.62375        41.90115        -1.27562
C         39.61984        42.72495        -1.73041
C         40.56436        44.66804        -0.50835
C         39.48390        44.07935        -1.24762
C         40.34378        45.88503         0.12421
C         39.14241        46.62566        -0.06715
C         40.15679        48.60780         1.08531
C         39.00636        47.94395         0.47532
C         40.14805        50.02172         1.30587
C         38.94019        50.75207         1.10479
C         40.17608        52.86142         1.42985
C         38.97555        52.14717         1.09765
C         40.16776        54.33650         1.42808
C         38.98118        55.03829         1.18998
C         40.20344        57.29071         1.46959
C         38.89635        56.48239         1.37804
C         40.19309        58.70962         1.05057
C         38.94551        59.40618         0.85393
C         40.30737        61.39796        -0.02347
C         38.96964        60.77541         0.35358
C         43.16976        36.28835        -2.16621
C         43.06591        37.67935        -1.91625
C         41.86373        38.38284        -1.91570
C         42.93301        40.28712        -0.70569
C         41.80986        39.74622        -1.47885
C         42.81202        41.56471        -0.03928
C         41.57774        42.42777        -0.20986
C         42.96905        44.49206         0.46810
C         41.91128        43.92549        -0.51161
C         42.54706        45.63858         1.37590
C         41.31742        46.42550         1.08890
C         42.53843        48.54157         1.66260
C         41.32434        47.87940         1.32454
C         42.55918        49.93719         1.81770
C         41.35933        50.70635         1.66692
C         42.58518        52.87048         2.14043
C         41.33220        52.14078         1.78627
C         42.64859        54.41389         2.02846
C         41.38087        55.07967         1.55142
C         42.64937        57.17332         1.16486
C         41.42794        56.48334         1.37456
C         42.68179        58.58719         1.06203
C         41.45255        59.32875         0.91684
C         42.70709        61.40164         0.58739
C         41.53305        60.72473         0.53252
C         45.40875        33.39506        -1.36616
C         44.45405        34.17314        -2.02350
C         45.59311        36.38342        -1.85821
C         44.39947        35.60249        -2.07824
C         45.55742        37.71028        -1.49256
C         44.31141        38.51289        -1.71062
C         45.23924        39.98577         0.18880
C         44.12154        39.58901        -0.67477
C         45.10311        41.31712         0.93068
C         43.84605        42.06061         0.71769
C         45.02790        44.13100         1.64974
C         43.76967        43.43897         1.21786
C         44.92569        45.56952         1.13863
C         43.78619        46.40130         1.65067
C         45.03180        48.49571         1.39757
C         43.78682        47.77273         1.63006
C         45.07341        49.85431         1.57115
C         43.88871        50.54400         2.22608
C         45.11446        52.78858         1.65074
C         43.87906        52.08951         2.15655
C         45.16944        54.27063         1.53841
C         43.88260        54.92117         1.28812
C         45.17343        57.10468         0.94755
C         43.88101        56.40427         0.94503
C         45.16195        58.55720         0.92087
C         43.94169        59.26111         0.97392
C         45.20225        61.40553         0.62031
C         43.95213        60.76365         1.13063
C         46.55734        33.80349        -0.65235
C         48.07263        35.68595         0.06858
C         47.17385        35.05832        -0.81191
C         48.37607        37.07135        -0.02982
C         46.70576        38.36129        -0.91665
C         47.73627        40.04599         0.61875
C         46.59994        39.43946        -0.05610
C         47.63290        41.37184         1.08446
C         46.35870        42.06908         1.20402
C         47.52494        44.22295         1.84774
C         46.30587        43.40149         1.54068
C         47.47326        45.62090         1.22195
C         46.23226        46.29951         1.05699
C         47.45423        48.40840         0.86457
C         46.23568        47.71783         1.06885
C         47.39939        49.90601         0.65943
C         46.42620        50.52438         1.67297
C         47.68514        52.75737         1.48440
C         46.36164        52.01975         1.39829
C         47.61816        54.22441         1.13745
C         46.37435        54.93959         1.25505
C         47.62910        57.12052         1.12884
C         46.35043        56.38370         1.06014
C         47.64150        58.56831         0.80309
C         46.40050        59.26172         0.77177
C         47.63638        61.35225         0.31462
C         46.39904        60.69521         0.56137
C         49.04145        37.86242         0.89435
C         50.10447        40.00722         1.30633
C         48.97398        39.30651         0.88212
C         50.11950        41.41967         1.38490
C         48.84081        42.12541         1.38638
C         50.07877        44.24565         1.90630
C         48.81033        43.48645         1.59471
C         49.99830        45.71300         1.46425
C         48.68275        46.32957         1.10919
C         49.87666        48.41719         0.30869
C         48.65780        47.70924         0.77815
C         49.90869        49.89210         0.31442
C         48.74351        50.61218         0.64797
C         49.98336        52.71164         0.42107
C         48.80564        52.00853         0.79430
C         50.00662        54.16138         0.46606
C         48.83358        54.86986         0.83257
C         50.12805        57.04653         0.56727
C         48.91102        56.33669         0.98553
C         50.17296        58.53448         0.84668
C         48.85260        59.23590         0.60713
C         50.08166        61.33914         0.13062
C         48.85875        60.65485         0.34650
C         51.32392        42.13082         1.40734
C         52.51164        44.24185         1.14506
C         51.34176        43.54535         1.43094
C         52.54326        45.65385         0.94806
C         51.26025        46.39777         1.04397
C         52.44397        48.47911         0.23396
C         51.19274        47.70010         0.31304
C         52.39752        49.85179        -0.00209
C         51.12999        50.57301         0.07485
C         52.30291        52.68754        -0.59733
C         51.12708        51.98389         0.02094
C         52.34125        54.17164        -0.32055
C         51.21765        54.86667         0.09036
C         52.45962        57.04995        -0.16140
C         51.23713        56.33916         0.15628
C         52.49396        58.48905        -0.12203
C         51.33607        59.22625         0.19149
C         52.50255        61.31818        -0.36689
C         51.31582        60.64289         0.00676
C         53.69101        46.35249         0.62300
C         54.88169        48.48298         0.21724
C         53.69117        47.77400         0.36377
C         54.87972        49.88710        -0.02243
C         53.62740        50.59164        -0.12873
C         54.83799        52.69440        -0.44945
C         53.62050        51.98286        -0.34817
C         54.85808        54.11844        -0.58805
C         53.56468        54.87535        -0.85289
C         54.84178        57.01870        -0.64623
C         53.62758        56.33901        -0.49268
C         54.89244        58.44881        -0.68238
C         53.69406        59.18246        -0.47180
C         54.92547        61.27205        -0.90512
C         53.71178        60.61313        -0.57424
C         56.08652        50.59515        -0.16380
C         57.31572        52.69654        -0.53961
C         56.09455        51.98957        -0.36882
C         57.33438        54.08784        -0.69029
C         56.07307        54.78650        -0.63237
C         57.38576        56.96062        -0.90119
C         56.09725        56.25494        -0.60123
C         57.27633        58.35507        -1.40212
C         56.08480        59.13233        -1.03923
C         57.36493        61.22081        -1.41304
C         56.11576        60.55174        -1.14861
C         58.55465        54.79466        -0.98119
C         59.79950        56.89836        -1.46853
C         58.60895        56.17381        -1.18629
C         59.83207        58.30350        -1.58562
C         58.56931        59.06991        -1.71435
C         59.83587        61.18964        -1.63478
C         58.56651        60.54214        -1.59300
C         61.02927        59.04350        -1.62040
C         61.01371        60.45075        -1.66891
O         47.93949        37.76458        -1.18296
O         46.83373        35.74840        -1.98840
O         36.25171        60.49027         1.25778
O         50.74991        46.55845         2.42313
O         41.46608        45.56314         2.30855
O         44.92869        40.04831         1.62800
O         36.69258        50.07915         1.97650
O         43.26545        52.53247         3.41043
O         35.89855        56.95425        -1.61436
O         33.92812        58.95048        -1.84562
O         44.02415        43.72116         2.62128
O         43.69822        55.35993        -0.09073
O         34.13693        52.29748         1.24834
O         45.48976        52.28958         0.27869
O         48.42651        56.78189         2.33024
O         56.95976        56.81288         0.48683
O         37.97964        53.64421        -0.60044
O         39.40799        56.98584         2.65227
O         44.14385        45.20839        -0.22431
O         50.39860        47.75280        -0.91633
O         29.30666        56.56750        -0.55783
H         29.38135        56.67598         0.41210
O         50.42784        58.64160         2.29768
H         49.73846        58.07800         2.73213
O         46.82495        50.12781        -0.65466
H         47.42071        49.72693        -1.32131
O         34.78921        54.78355         2.29939
H         34.11960        54.11845         2.57458
O         44.09628        50.20659         3.63844
H         43.49985        50.79193         4.16199
O         40.86741        42.44560         1.05095
H         40.74420        41.52275         1.35461
O         40.40943        61.41364        -1.46609
H         40.44639        60.48638        -1.77915
O         43.94387        61.02173         2.59605
H         44.74290        60.59204         2.97007
O         42.44515        43.98601        -1.84418
H         43.14813        44.67216        -1.86131
O         47.46445        44.49089         3.28928
H         48.39301        44.46164         3.63707
O         48.01139        52.73307         2.91574
H         48.86673        53.19712         3.03694
O         35.91991        55.54585        -1.86684
H         36.87851        55.29833        -1.82256
O         44.53259        39.23035        -2.98201
H         44.63028        38.55645        -3.68775
O         52.08662        52.55775        -2.07062
H         51.15403        52.80728        -2.24887
O         46.91643        50.25851         2.99772
H         46.14839        50.28062         3.61515
O         53.43419        54.88365        -2.31929
H         53.11505        53.98024        -2.57663
O         50.17928        44.26079         3.37055
H         50.69805        45.07312         3.59258
O         57.70400        58.54214        -2.78678
O         42.80728        54.96222         3.37087
H         43.13165        54.23559         3.95435
H         30.32649        57.02849        -2.27704
H         28.31633        58.82938        -0.97565
H         30.46870        62.57184        -0.67632
H         28.31334        61.32372        -0.78491
H         32.18326        52.58984        -1.47630
H         30.81614        54.53366        -1.04002
H         32.89672        62.60606        -0.73405
H         34.70289        48.28280        -1.18110
H         33.49596        50.22606        -1.33880
H         35.45328        62.47825        -1.32512
H         37.45179        44.29098        -1.95453
H         36.04542        46.32646        -1.55506
H         38.17836        62.47667        -0.63961
H         39.88382        40.15755        -2.34488
H         38.86303        42.33369        -2.42809
H         40.30738        62.47207         0.29309
H         42.24486        35.70807        -2.30918
H         40.93319        37.89109        -2.23883
H         42.74816        62.45975         0.28747
H         45.14799        32.32887        -1.26426
H         43.54482        33.64442        -2.35204
H         45.21095        62.49632         0.47505
H         46.97085        33.10436         0.08963
H         48.38920        35.14826         0.97358
H         47.63833        62.43843         0.14098
H         49.67101        37.38879         1.66332
H         51.04198        39.45734         1.47523
H         50.06171        62.42591        -0.03735
H         52.27059        41.58574         1.27157
H         53.43529        43.67081         0.96195
H         52.48306        62.41095        -0.49116
H         54.65233        45.81861         0.58211
H         55.84464        47.95768         0.30020
H         54.93425        62.36976        -0.97899
H         57.04157        50.05211        -0.10599
H         58.25985        52.13194        -0.55696
H         57.37674        62.32077        -1.37595
H         59.47450        54.20107        -1.09664
H         60.75066        56.34566        -1.51353
H         59.87797        62.28803        -1.61145
H         61.99224        58.51464        -1.57815
H         61.97443        60.98478        -1.69032
