         324
 CSIRO Nanostructure Databank - Neutral Graphene Oxide Data Set
C          1.90321         4.22172         3.47540
C          0.83029         5.00287         3.84804
C          1.84629         6.98498         2.84823
C          0.81149         6.38511         3.55568
C          1.94323         8.49235         2.70468
C          0.63078         9.21469         2.71862
C          1.70956        11.17680         1.71395
C          0.60520        10.52209         2.36637
C          1.70077        12.63428         1.74278
C          1.19760        13.39812         2.82727
C          2.08585        15.48755         1.86544
C          1.32637        14.78524         2.83532
C          2.17218        16.95247         1.84019
C          1.27557        17.79826         2.54732
C          2.14952        19.78425         1.40988
C          1.25054        19.16458         2.31517
C          2.08886        21.18927         1.04959
C          1.15445        22.06068         1.64991
C          1.87473        23.95310         0.29484
C          1.09329        23.42371         1.30545
C          1.88210        25.40919         0.01636
C          0.64913        26.19355         0.17983
C          1.68793        28.13005        -0.89687
C          0.59506        27.49743        -0.19120
C          1.64359        29.55484        -1.17928
C          4.13069         4.02721         2.42168
C          2.99412         4.79835         2.76590
C          4.01706         6.76699         1.66757
C          2.95245         6.18860         2.43195
C          3.90575         8.15095         1.21617
C          2.85018         8.96435         1.57566
C          3.74257        10.85365         0.23990
C          2.75538        10.36693         1.13081
C          3.73505        12.16274        -0.33882
C          2.28534        13.39537         0.71404
C          3.69580        15.27158        -0.14506
C          2.67372        14.73091         0.81477
C          3.96422        16.72604         0.10438
C          3.10628        17.55478         0.99051
C          4.13350        19.56905        -0.04532
C          3.14133        18.96931         0.79606
C          4.03549        20.91420        -0.46201
C          2.96816        21.69936         0.04673
C          3.86968        23.66847        -1.36947
C          2.79121        23.07585        -0.44538
C          4.01184        25.14493        -1.50714
C          2.97160        26.00238        -0.86134
C          3.81201        28.00361        -2.16085
C          2.75127        27.37181        -1.35040
C          3.93894        29.48077        -2.02678
C          2.73308        30.20603        -1.66374
C          6.40748         3.84606         1.47329
C          5.18725         4.59072         1.70154
C          6.12417         6.44598         0.34159
C          5.10228         5.95891         1.29074
C          6.23394         7.90853         0.10613
C          5.05916         8.73674         0.48504
C          6.10573        10.69377        -0.64746
C          4.81414         9.96604        -0.34801
C          6.05493        12.10362        -1.00827
C          4.86309        12.89909        -0.64407
C          6.23417        14.97391        -0.77734
C          4.80950        14.39831        -0.94144
C          6.43848        16.45282        -0.56776
C          5.30813        17.30942        -0.11840
C          6.44188        19.33033        -1.10883
C          5.36403        18.80204        -0.28665
C          6.14929        20.59159        -1.80290
C          5.05288        21.48321        -1.33895
C          6.09764        23.40932        -2.52149
C          5.03242        22.82109        -1.72076
C          6.11064        24.88541        -2.94684
C          5.03481        25.70366        -2.21275
C          6.31960        27.87834        -2.70267
C          5.00780        27.16630        -2.54117
C          6.38228        29.36815        -2.47341
C          5.13626        30.10898        -2.18807
C          8.79295         3.77677         0.88608
C          7.47010         4.34357         0.75841
C          8.51675         6.20562        -0.70334
C          7.32079         5.60644         0.00405
C          8.57092         7.67739        -0.94786
C          7.27686         8.41521        -0.86009
C          8.56045        10.57134        -1.31832
C          7.25504         9.90395        -1.12096
C          8.59385        11.99033        -1.44417
C          7.32606        12.77405        -1.50392
C          8.59993        14.89785        -1.53717
C          7.40441        14.25115        -1.34990
C          8.70298        16.34802        -1.52744
C          7.61740        17.13213        -1.12916
C          8.68845        19.12786        -2.12739
C          7.57054        18.54435        -1.44366
C          8.61870        20.50538        -2.65260
C          7.25385        21.16992        -2.64272
C          8.99719        23.59409        -2.78490
C          7.08572        22.58886        -2.99934
C          8.71697        24.83525        -2.28634
C          7.51729        25.58817        -2.74979
C          8.68259        27.65678        -1.69195
C          7.57725        27.06459        -2.50843
C          8.66169        29.08222        -1.45520
C          7.62390        29.90727        -1.90912
C         11.24211         3.90630         0.88316
C          9.90421         4.31197         0.30610
C         11.05786         6.08379        -1.23407
C          9.80869         5.41889        -0.69026
C         11.01218         7.60174        -1.52782
C          9.74069         8.35290        -1.24124
C         11.00593        10.53485        -1.34813
C          9.76070         9.82303        -1.32229
C         11.03546        11.96268        -1.45828
C          9.80480        12.67191        -1.56708
C         11.09967        14.82628        -1.80481
C          9.79314        14.10988        -2.03371
C         11.12845        16.23127        -1.98992
C          9.91301        16.99383        -1.95743
C         11.15327        19.03759        -2.55985
C          9.91131        18.40027        -2.19576
C         11.28308        20.52936        -2.56718
C          9.97674        21.28140        -2.67806
C         11.00001        23.20152        -1.42478
C         10.03118        22.71008        -2.32645
C         10.69237        24.49309        -0.75491
C          9.58640        25.39040        -1.24034
C         10.78342        27.45160        -0.37969
C          9.67193        26.87247        -1.08972
C         10.72508        28.87707        -0.09348
C          9.67500        29.63392        -0.62960
C         13.72727         3.64844         0.32994
C         12.38886         4.10686        -0.07291
C         13.59173         5.71101        -1.58058
C         12.29761         5.20799        -1.09819
C         13.50279         7.84772        -1.89872
C         12.26757         8.41308        -1.56889
C         13.48983        10.52888        -1.32771
C         12.25199         9.82104        -1.35420
C         13.49277        11.96255        -1.27989
C         12.27913        12.67978        -1.44938
C         13.53961        14.85604        -1.59212
C         12.29971        14.12533        -1.62649
C         13.61225        16.22557        -1.88103
C         12.37793        16.88717        -2.20583
C         14.17229        19.30181        -2.23203
C         12.27586        18.23023        -2.68085
C         13.92056        20.72759        -1.89968
C         12.51520        21.29882        -2.02879
C         13.24327        23.05411        -0.32964
C         12.26303        22.54489        -1.23220
C         12.94823        24.30396         0.43737
C         11.72828        25.10880         0.12466
C         13.06259        27.09262         0.55309
C         11.82323        26.59515         0.14992
C         12.84619        29.12052         1.16628
C         11.54496        29.53567         0.89572
C         16.16542         3.63329         0.03554
C         14.88026         4.22485        -0.17164
C         16.01266         6.22532        -1.23982
C         14.81294         5.41389        -1.02348
C         15.97800         7.65495        -1.46778
C         14.76034         8.42419        -1.57622
C         15.96612        10.54008        -1.20122
C         14.73767         9.83227        -1.34463
C         15.94905        11.96224        -1.01454
C         14.72126        12.65287        -1.06730
C         15.94815        14.84451        -0.67165
C         14.69073        14.12776        -1.00242
C         16.16586        16.20262        -1.28239
C         14.98559        16.94406        -1.99431
C         16.11892        19.07776        -0.85745
C         15.01265        18.44297        -1.58375
C         16.11978        20.50494        -0.72357
C         14.97265        21.39826        -1.08321
C         15.52509        23.18635         0.65329
C         14.58964        22.58354        -0.24018
C         15.05729        24.10845         1.78045
C         14.04347        24.99317         1.15651
C         14.96625        27.01823         2.25351
C         14.04403        26.35967         1.33392
C         14.78638        28.41739         2.60085
C         13.65833        29.26337         2.29423
C         18.58275         3.57021        -0.38518
C         17.30937         4.23711        -0.46603
C         18.48304         6.30221        -1.13442
C         17.25139         5.59407        -0.97605
C         18.45793         7.71786        -1.28834
C         17.20247         8.39622        -1.35281
C         18.42258        10.53565        -1.04390
C         17.19236         9.82611        -1.24220
C         18.38446        11.93518        -0.69019
C         17.19607        12.63366        -0.72886
C         18.46807        14.76899        -0.18423
C         17.15037        14.03010        -0.15108
C         18.47822        16.17659        -0.10857
C         17.36705        16.92940        -0.75147
C         18.42387        19.02882         0.06862
C         17.30726        18.38718        -0.55508
C         18.38070        20.43769         0.27556
C         17.30824        21.10699        -0.35163
C         17.78384        23.12746         1.70518
C         16.90486        22.96542         0.60221
C         17.36966        24.08702         2.70584
C         16.16542        24.85216         2.51081
C         16.85003        26.88977         3.88397
C         15.98301        26.22681         2.90666
C         16.77477        28.31311         4.04749
C         15.73159        29.02902         3.43510
C         19.74076         4.21767        -0.70876
C         20.93124         6.34255        -1.17812
C         19.72571         5.61663        -1.02761
C         20.91416         7.71957        -1.28770
C         19.69151         8.44515        -1.27904
C         20.88097        10.65185        -1.03145
C         19.66109         9.86800        -1.13866
C         20.87403        11.90097        -0.52645
C         19.60716        12.52222        -0.00114
C         20.82372        14.73082         0.36255
C         19.64901        14.03902         0.01452
C         20.81491        16.10984         0.53686
C         19.65154        16.86357         0.27786
C         20.65668        19.05609         0.99711
C         19.60392        18.31600         0.44513
C         20.51775        20.40705         1.34818
C         19.34645        21.13602         1.07656
C         19.85521        22.70262         2.90111
C         19.02549        22.38609         1.81295
C         19.45530        23.58696         3.91005
C         18.22219        24.21990         3.83081
C         18.53564        26.94568         5.70715
C         17.71776        26.25274         4.81515
C         18.52760        28.35045         5.74170
C         17.64253        29.02396         4.92697
O          6.14943         5.64973        -0.88490
O          6.42968        28.77554        -3.83892
O          7.92356        26.48297        -3.83361
O          6.83575         8.88359        -2.16985
O         11.77914        24.32101         1.37496
O          6.27017         8.72127         1.33580
O         12.17888        21.26103        -3.45550
O         12.02822         3.80406        -1.46436
O          2.60900        23.17394        -1.92087
O         17.45270        22.47873        -0.58778
O          3.98772        27.49475        -3.53346
O          6.37866        12.30184        -2.48429
O         13.43676        28.35316         0.12636
O          9.32688        20.81457        -3.88711
O          2.49771        12.78516        -0.51906
O          6.63157        15.46856         0.53789
O          8.85312         5.27012        -1.77952
O         10.86273         6.59960        -2.57553
O          9.41032        24.57234        -0.01603
O          8.12014        23.11673        -3.77745
O         17.75413        24.86481         4.97410
O         14.89674        14.80432         0.35099
O         17.32945        16.34909        -2.14999
O          3.20570        16.28892        -1.07653
O         13.51948         6.64496        -2.61107
O         13.39069        18.81409        -3.26836
O          6.20266        20.36137        -3.27435
O          5.76662        18.13471         0.98378
O          3.09346        26.01275         0.62284
O         14.88837        21.64552        -2.53241
O          4.52378        14.57449        -2.33387
H          3.65361        14.16871        -2.52946
O         19.45804        12.12269         1.40082
H         18.63699        12.56507         1.72300
O         15.24822        16.88009        -3.40663
H         16.21945        16.99999        -3.52693
O          2.64333         8.93989         3.92707
H          3.53053         8.52048         3.92401
O         14.39042        23.26254         2.78173
H         13.43482        23.48998         2.78360
O         16.96524        13.80306         1.28683
H         16.00468        13.96985         1.46792
O          5.81129        24.93872        -4.34232
H          6.28026        25.71584        -4.72520
O         11.50081         4.73872         2.03135
H         10.81393         4.55874         2.70577
O          4.25270         9.49633        -1.61934
H          5.00544         9.17017        -2.17562
O          9.63445        14.04334        -3.49111
H         10.39059        13.53718        -3.85622
H          1.93145         3.15155         3.72514
H         -0.01082         4.56002         4.39926
H         -0.03866         6.97995         3.91555
H         -0.26363         8.74367         3.14755
H         -0.31309        11.10971         2.51833
H          0.70052        12.89450         3.66815
H          0.87877        15.34733         3.66677
H          0.54147        17.36079         3.23810
H          0.49275        19.76833         2.83315
H          0.48307        21.69067         2.43523
H          0.40157        24.07642         1.85655
H         -0.23986        25.69775         0.59499
H         -0.32040        28.08299        -0.02188
H          0.74085        30.11433        -0.89495
H          4.17716         2.97054         2.72349
H          2.73225        31.30078        -1.76768
H          6.51818         2.88121         1.99187
H          5.20483        31.19930        -2.05115
H          8.91789         2.94775         1.60209
H          7.64268        30.97112        -1.62740
H         11.19859         2.83140         1.21563
H          9.61785        30.70378        -0.38251
H         13.80105         2.79596         1.02078
H         11.09450        30.35347         1.47624
H         16.23264         2.66306         0.54889
H         13.44905        30.08273         2.99824
H         18.60210         2.51998        -0.05998
H         15.62968        30.10101         3.65872
H         20.70781         3.69731        -0.65333
H         21.88954         5.80458        -1.14579
H         21.86909         8.25903        -1.33984
H         21.83033        10.21071        -1.36706
H         21.81825        12.45923        -0.45442
H         21.75314        14.17820         0.55628
H         21.74016        16.61244         0.84950
H         21.59990        18.55526         1.25552
H         21.36090        20.87117         1.87640
H         20.80906        22.18092         3.04425
H         20.07647        23.71604         4.80546
H         19.17261        26.37342         6.39363
H         19.18518        28.89253         6.43414
H         17.55727        30.11846         4.97416
