         490
 CSIRO Nanostructure Databank - Neutral Graphene Oxide Data Set
C         37.75154        50.20808         2.27107
C         36.59390        50.91365         2.58160
C         37.91468        52.90011         2.96370
C         36.67492        52.26073         2.94781
C         40.25950        48.68996         2.00238
C         40.24065        50.08705         2.02806
C         39.01652        50.83651         2.29956
C         40.41356        52.94313         2.67046
C         39.08643        52.21425         2.61506
C         40.33079        54.31067         2.01756
C         42.65039        48.63626         1.50699
C         41.45120        47.97560         1.81467
C         42.65319        50.04680         1.44058
C         41.48171        50.80100         1.83045
C         42.87791        52.91109         1.98881
C         41.56496        52.17303         2.07383
C         42.72880        54.34409         1.45499
C         41.41503        54.94748         1.52256
C         45.05116        45.77209         0.80256
C         43.91671        46.43430         1.07345
C         45.03059        48.55405         0.64972
C         43.97273        47.88450         1.51597
C         44.91689        50.01239         0.34618
C         43.83488        50.77491         1.03142
C         45.18056        52.83643         0.92160
C         43.94025        52.12355         1.25680
C         45.12979        54.34958         0.84674
C         43.83441        55.05183         1.02163
C         44.93256        57.16378         0.29547
C         43.86803        56.49375         0.81399
C         47.63510        44.28802         0.32001
C         47.60575        45.68760         0.46489
C         46.40222        46.42767         1.01374
C         47.47042        48.54410         0.12851
C         46.34552        47.87195         0.53534
C         47.44149        49.98208        -0.15622
C         46.11407        50.73303        -0.26241
C         47.38186        52.85429        -0.20730
C         46.25974        52.15284         0.20289
C         47.42309        54.26830        -0.20873
C         46.14765        54.98470        -0.03570
C         47.35167        57.10856        -0.88083
C         46.05721        56.44524        -0.34736
C         47.39654        58.60848        -0.73350
C         50.02701        44.25736        -0.21058
C         48.79297        43.61570        -0.11645
C         50.09519        45.68755         0.28130
C         48.78276        46.42094         0.23725
C         49.91121        48.51066        -0.35529
C         48.75723        47.83800         0.03985
C         49.81683        49.90448        -0.90604
C         48.58200        50.65781        -0.47317
C         49.83451        52.86919        -0.62424
C         48.53029        52.13079        -0.85043
C         49.89582        54.25714        -0.42396
C         48.63397        54.99787        -0.37137
C         49.84820        57.11961        -0.09876
C         48.60471        56.39236        -0.38172
C         49.82991        58.64260        -0.24701
C         48.53927        59.29444        -0.59473
C         52.45209        41.49640        -1.04354
C         51.27269        42.17028        -0.80852
C         52.49136        44.26386        -0.61089
C         51.25396        43.57196        -0.55153
C         52.57161        45.73369        -0.24443
C         51.25729        46.45423        -0.27245
C         52.37121        48.60282        -0.77193
C         51.18518        47.82623        -0.47645
C         52.34087        50.01243        -0.83672
C         51.09068        50.69710        -0.77281
C         52.24714        52.83087        -0.91766
C         51.03151        52.10721        -0.77332
C         52.34140        54.19303        -0.50533
C         51.15548        54.95823        -0.26582
C         52.27431        57.22920         0.18453
C         51.14923        56.40440        -0.04531
C         52.31081        58.64111        -0.15576
C         51.11659        59.30746        -0.53168
C         52.42281        61.21156        -1.26666
C         51.19635        60.57839        -1.12638
C         54.99518        40.06804        -1.42899
C         54.95531        41.46466        -1.19989
C         53.70241        42.16998        -1.05604
C         54.96475        44.31245        -0.96179
C         53.70031        43.58219        -0.87278
C         54.94364        45.70559        -1.04146
C         53.66704        46.42697        -1.02678
C         54.89215        48.72570        -1.12558
C         53.63225        47.93754        -1.11792
C         54.87565        50.10152        -1.18037
C         53.55864        50.74190        -1.15532
C         55.26829        53.17606        -1.03488
C         53.37968        52.10537        -1.36563
C         54.93592        54.29167        -0.19627
C         53.61835        54.60779         0.05232
C         54.77376        57.21547         0.43769
C         53.53031        56.67779         0.63116
C         54.82801        58.72277         0.34179
C         53.56156        59.32096        -0.23984
C         54.89323        61.33471        -0.86794
C         53.61430        60.61888        -0.78306
C         54.94240        62.69688        -1.18219
C         57.43201        40.08056        -1.42645
C         56.19815        39.40456        -1.57954
C         57.43205        41.45161        -1.17047
C         56.19758        42.17183        -1.10162
C         57.46005        44.31495        -1.21814
C         56.20653        43.60093        -1.04171
C         57.44263        45.80455        -1.52253
C         56.18950        46.48093        -1.01527
C         57.44735        48.71285        -1.06288
C         56.16037        47.97997        -0.98471
C         57.45717        50.09023        -0.94836
C         56.22696        50.89104        -1.36031
C         57.41911        52.88502        -0.07375
C         56.26143        52.28290        -0.72948
C         57.35530        54.18879         0.39794
C         56.01539        54.86015         0.71379
C         57.31505        57.15920         0.40024
C         56.02872        56.43531         0.67595
C         57.30848        58.57599        -0.08660
C         56.11138        59.27703        -0.22969
C         57.37329        61.32972        -0.76998
C         56.12553        60.64382        -0.64217
C         57.38035        62.73509        -1.03044
C         56.15562        63.38488        -1.24377
C         59.97106        37.24967        -1.19101
C         58.81192        37.93372        -1.18036
C         59.95978        40.12721        -1.48900
C         58.70328        39.33021        -1.76502
C         59.96363        41.47974        -1.31423
C         58.71030        42.19752        -0.86054
C         59.93340        44.41965        -1.54083
C         58.65620        43.64692        -1.26624
C         59.91127        45.74003        -0.75348
C         58.67009        46.54273        -1.04820
C         59.89899        48.63760        -0.69752
C         58.65762        47.92076        -0.91831
C         59.87971        50.01882        -0.44324
C         58.67413        50.76895        -0.53840
C         59.88268        52.83631         0.12499
C         58.66943        52.14739        -0.14486
C         59.88004        54.23892         0.41038
C         58.59971        54.96686         0.75676
C         59.80732        57.13889         0.11681
C         58.53640        56.32869         0.01303
C         59.79835        58.48631        -0.14435
C         58.55958        59.22986        -0.32106
C         59.86084        61.35249        -0.61045
C         58.60172        60.61906        -0.59022
C         59.86083        62.77671        -0.75475
C         58.63695        63.46882        -0.99999
C         59.85859        65.57456        -1.03178
C         58.67188        64.86271        -1.16813
C         62.57825        35.73957        -1.06889
C         62.62314        37.22811        -1.32442
C         61.24763        37.89048        -1.59666
C         62.46161        40.11162        -1.20642
C         61.23339        39.39027        -1.60600
C         62.44243        41.53357        -1.24732
C         61.22108        42.23379        -1.30255
C         62.42046        44.37775        -1.05704
C         61.21202        43.65096        -1.26215
C         62.41627        45.82021        -1.01681
C         61.18190        46.53565        -0.95590
C         62.35738        48.71892        -1.06554
C         61.13467        47.92629        -0.85084
C         62.40301        50.09547        -0.59551
C         61.15674        50.65290         0.06241
C         62.32984        52.85621         0.01559
C         61.13938        52.15511         0.02248
C         62.31264        54.28169         0.16121
C         61.07286        54.94921         0.45007
C         62.36268        57.16285         0.44890
C         61.05583        56.43456         0.50795
C         62.37599        58.50942        -0.19926
C         61.07323        59.20920        -0.41059
C         62.32964        61.39353        -0.39778
C         61.09023        60.68440        -0.46967
C         62.33153        62.81387        -0.45411
C         61.09120        63.50317        -0.65330
C         62.29470        65.68600        -0.53225
C         61.07121        64.92768        -0.74396
C         62.26528        67.09002        -0.43723
C         64.27063        35.87101         0.77697
C         63.39725        35.12355        -0.20700
C         64.51805        37.30196         0.32613
C         63.27710        38.01278        -0.14785
C         64.69542        40.14324        -0.18118
C         63.52326        39.42846        -0.61937
C         64.77487        41.51000        -0.34586
C         63.75912        42.24255        -1.18035
C         64.83925        44.39590        -0.54245
C         63.65656        43.70246        -0.86032
C         64.85990        45.82315        -0.63256
C         63.66313        46.50408        -0.94126
C         64.92942        48.68342        -0.80877
C         63.70550        47.95099        -1.13983
C         64.86421        50.07305        -0.64115
C         63.61239        50.75257        -0.48284
C         64.83288        52.93449        -0.52086
C         63.67146        52.15152         0.10545
C         64.55470        54.29988        -0.80372
C         63.48405        54.99805        -0.12895
C         64.90500        57.17428         0.11872
C         63.67604        56.36998         0.52559
C         64.85153        58.55567        -0.06724
C         63.62239        59.29728        -0.11810
C         64.82890        61.44853        -0.13483
C         63.58918        60.68791        -0.24695
C         64.79209        62.89796        -0.15351
C         63.56891        63.56004        -0.33897
C         64.73034        65.76518        -0.21463
C         63.53569        65.00945        -0.37739
C         64.66493        67.17266        -0.08366
C         63.42311        67.81309        -0.17413
C         66.71923        32.99416         1.49179
C         65.55648        33.67501         1.33564
C         66.88062        35.82048         1.17250
C         65.54168        35.14068         1.21442
C         67.00842        37.12499         0.42245
C         65.73130        37.92928         0.38464
C         67.04068        40.02108         0.57878
C         65.84582        39.37815         0.29038
C         67.05650        41.49979         0.73259
C         65.79435        42.30208         0.42251
C         67.25227        44.35233        -0.01778
C         66.03561        43.68964        -0.14511
C         67.33629        45.79056        -0.23745
C         66.10654        46.53473        -0.48902
C         67.44389        48.66273        -0.65320
C         66.12980        47.92781        -0.59600
C         67.35298        50.05265        -0.06980
C         66.07237        50.81343        -0.19135
C         67.37029        52.90897        -0.15385
C         66.12327        52.29071        -0.35276
C         67.48252        54.39565        -0.25246
C         66.36169        55.08146         0.55778
C         67.38732        57.18774         0.05848
C         66.19148        56.52472         0.21020
C         67.42974        58.61849        -0.21871
C         66.08524        59.33350        -0.28779
C         67.32227        61.49628         0.29817
C         66.04387        60.78399        -0.07839
C         67.26453        62.95865        -0.05576
C         66.05209        63.62997        -0.13366
C         67.19415        65.82313        -0.11435
C         66.02582        65.08733        -0.17558
C         67.16260        67.32242        -0.28047
C         65.90918        67.93042         0.34431
C         67.06677        70.09535         0.08818
C         65.90477        69.41678         0.06822
C         69.20234        31.43898         1.77943
C         69.23736        32.84337         1.58490
C         68.02501        33.62791         1.46762
C         69.37698        35.68083         1.17552
C         68.11309        35.00570         1.25289
C         69.43902        37.11691         1.03169
C         68.25162        37.88558         0.81521
C         69.54217        39.97817         0.87555
C         68.27605        39.28266         0.78527
C         69.61660        41.39687         0.77780
C         68.37614        42.20680         0.77945
C         69.68558        44.25925         0.41565
C         68.45918        43.63823         0.38460
C         69.84956        45.69952        -0.01435
C         68.54835        46.46112        -0.06659
C         69.75598        48.59430         0.28167
C         68.62007        47.89795        -0.09232
C         69.81069        50.05141         0.24524
C         68.62542        50.78653         0.04458
C         69.80801        52.87589         0.47721
C         68.59613        52.19487         0.12939
C         69.80351        54.31926         0.67691
C         68.70618        55.03922         0.32550
C         69.61257        57.28348         1.17041
C         68.74969        56.53773         0.13654
C         69.74203        58.73945         0.70512
C         68.65270        59.36617         0.12787
C         69.82667        61.58119         0.29485
C         68.63045        60.83169        -0.23969
C         69.79709        62.98322         0.23681
C         68.54885        63.65904        -0.20223
C         69.70990        65.91870         0.27749
C         68.51210        65.18148        -0.18885
C         69.64095        67.33697         0.42801
C         68.41000        68.04320         0.20553
C         69.51571        70.18602         0.71347
C         68.34543        69.42535         0.33602
C         69.47034        71.59463         0.87265
C         71.61635        31.33839         1.80071
C         70.36722        30.69898         1.88578
C         71.68031        32.70915         1.61930
C         70.50424        33.49379         1.51036
C         71.81026        35.62799         1.36054
C         70.56995        34.93164         1.33663
C         71.86801        36.99991         1.25983
C         70.69183        37.78275         1.09982
C         71.98438        39.91766         0.97866
C         70.74672        39.22346         0.98582
C         72.03931        41.29372         0.89110
C         70.85218        42.06342         0.81063
C         72.01407        44.23792         1.14446
C         70.89032        43.52771         0.78082
C         71.98731        45.67286         1.23833
C         70.94963        46.40572         0.75351
C         72.21481        48.60557         0.66152
C         70.90950        47.90280         0.97083
C         72.25582        49.94620         0.50275
C         71.03859        50.74474         0.45050
C         72.25141        52.92657         0.81483
C         71.02928        52.16309         0.57976
C         72.26747        54.25652         1.07066
C         71.00902        55.02433         1.20137
C         72.16542        57.35779         1.43892
C         70.94360        56.53661         1.41108
C         72.14757        58.71154         1.24467
C         70.96670        59.45305         0.91212
C         72.11900        61.67147         1.08343
C         70.98255        60.89138         0.74839
C         72.09983        63.05107         0.98495
C         70.93939        63.75219         0.57678
C         72.04261        65.97048         0.94387
C         70.89638        65.21668         0.57424
C         72.00136        67.34506         1.04404
C         70.80419        68.06639         0.81295
C         71.88321        70.26579         1.32478
C         70.74558        69.50640         0.95078
C         71.81320        71.64128         1.46411
C         70.59697        72.31054         1.23882
O         45.67573        53.71652         2.04094
O         54.35655        52.84349        -2.04639
O         66.09692        35.84443         2.40392
O         66.83099        58.97252        -1.52734
O         53.42898        55.40430         1.19027
O         61.27481        38.58750        -2.89379
O         49.73628        58.03354         1.07859
O         63.01821        48.44201        -2.33356
O         61.78769        58.54814        -1.54583
O         56.83216        57.00458         1.77816
O         66.52441        50.26220         1.11295
O         68.70454        64.42839        -1.44390
O         53.37724        47.04550        -2.31044
O         45.54606        55.44449        -1.31443
O         67.60427        41.94911         2.02771
O         61.63684        57.10209         1.71736
O         44.41881        49.00232        -0.61222
O         65.93675        54.54655         1.56647
O         56.25949        47.16943         0.28132
O         70.82767        55.61030         2.55264
O         59.94520        44.77370        -2.96080
H         60.15980        43.96648        -3.47445
O         58.81100        42.23026         0.60974
H         59.32867        43.02959         0.85743
O         67.06999        67.54472        -1.71683
H         67.76895        67.01043        -2.15040
O         47.36985        56.90106        -2.32291
H         46.80463        56.10758        -2.49666
O         67.42020        61.38977         1.75633
H         66.63176        61.82149         2.14798
O         58.37621        55.97883        -1.39171
H         58.60391        56.76100        -1.93746
O         67.72384        48.87980        -2.07757
H         67.89469        48.00314        -2.48334
O         61.27327        50.27850         1.47838
H         62.09252        50.70787         1.81965
O         66.02353        67.73919         1.78374
H         65.24564        68.15760         2.20736
O         65.11021        55.02078        -1.78952
H         65.90278        54.57992        -2.18053
O         54.86898        59.15788         1.75142
H         55.58823        58.63221         2.17715
O         48.29017        52.14019        -2.30239
H         47.38100        51.75997        -2.42056
O         67.54972        54.76191        -1.68587
H         68.30317        54.25124        -2.05362
O         63.46431        37.40813        -2.48050
H         62.92183        37.88414        -3.15650
O         59.85173        45.33458         0.65346
H         59.73999        46.14302         1.19802
O         49.63868        49.73863        -2.36347
H         49.32364        50.61575        -2.70272
O         53.04678        45.78832         1.13899
H         52.27296        45.57741         1.71668
O         65.13586        42.56747         1.70485
H         65.85751        42.61338         2.37718
O         64.31739        42.19933        -2.56756
H         64.24628        41.26948        -2.87470
O         62.29622        38.10232         0.91453
H         62.47082        37.35071         1.53919
O         67.23395        36.70788        -0.96894
H         67.26639        37.51446        -1.52518
O         69.39454        56.76480        -1.15061
H         68.75836        56.47980        -1.84434
O         45.86101        50.82479        -1.70880
H         45.38046        49.99549        -1.94927
O         68.89531        57.32605         2.41525
H         69.25292        56.60267         2.98270
O         58.63569        55.22865         2.18008
H         58.79344        54.37785         2.63946
O         40.70474        53.16848         4.08706
H         41.67993        53.31272         4.16116
O         63.46916        35.96399         2.00761
H         64.10701        36.18312         2.72678
O         68.65184        60.96967        -1.67692
H         67.98287        60.33858        -2.04017
O         58.64193        39.16490        -3.21867
H         59.52863        38.82433        -3.49621
O         44.43814        47.94994         2.90188
H         43.72103        47.61181         3.47874
O         43.36209        53.09550         3.37457
H         44.29015        53.43609         3.29207
O         63.90756        56.06309         1.92017
H         63.04655        56.19027         2.39039
O         46.65606        46.45367         2.45450
H         45.93922        47.00241         2.86669
O         55.72260        54.50281         2.08517
H         56.30159        55.07096         2.64273
O         57.40349        45.94380        -2.97345
H         58.27143        45.60686        -3.31039
O         50.38779        45.55557         1.75580
H         49.54939        45.27297         2.18538
O         70.68573        48.07725         2.41124
H         70.59301        49.03932         2.57940
O         63.92767        51.98621         1.53636
H         64.48322        52.74041         1.83779
O         70.31440        45.66043        -1.41977
H         71.15207        45.14924        -1.42753
O         56.35318        51.05771        -2.79943
H         55.63419        51.66931        -3.08042
H         37.66965        49.14811         1.99384
H         35.61905        50.40737         2.55194
H         37.96979        53.95427         3.26916
H         35.76631        52.81492         3.22089
H         39.33941        48.12198         2.19530
H         39.36139        54.83115         2.00912
H         41.42818        46.87999         1.89907
H         41.29477        55.96094         1.10975
H         44.99937        44.72357         0.47217
H         42.94345        45.93899         0.93678
H         44.92367        58.26327         0.28165
H         43.01851        57.08115         1.19253
H         46.71909        43.70036         0.47020
H         46.46693        59.15533        -0.95403
H         48.70018        42.55035        -0.37036
H         48.51382        60.39487        -0.61745
H         52.40997        40.41089        -1.20416
H         50.33498        41.59873        -0.79373
H         52.45039        62.20213        -1.73921
H         50.28514        61.08595        -1.47127
H         54.06224        39.49814        -1.53095
H         54.01694        63.26363        -1.34874
H         56.19721        38.33266        -1.82152
H         56.12666        64.46137        -1.45637
H         60.01585        36.22509        -0.78974
H         57.89806        37.43754        -0.81949
H         59.82506        66.66459        -1.15483
H         57.75334        65.42186        -1.38752
H         61.94453        35.13357        -1.73690
H         61.31766        67.63644        -0.52477
H         63.36532        34.02594        -0.12479
H         63.34541        68.90185        -0.05145
H         66.66518        31.90207         1.59474
H         64.60478        33.12587         1.29297
H         67.05684        71.18247        -0.07371
H         64.96194        69.95916        -0.09245
H         68.24064        30.91414         1.84963
H         68.53048        72.13793         0.70791
H         72.54094        30.75009         1.87985
H         70.31613        29.61161         2.03508
H         72.66815        33.18414         1.55451
H         72.75002        35.07487         1.48695
H         72.85104        37.48599         1.31032
H         72.92810        39.36083         1.04405
H         73.01849        41.79160         0.88887
H         72.92152        43.71622         1.47719
H         72.82248        46.16917         1.75382
H         73.15105        48.02807         0.68451
H         73.22737        50.44631         0.37609
H         73.21011        52.38900         0.78594
H         73.22240        54.76238         1.27346
H         73.11453        56.86151         1.68732
H         73.10313        59.24951         1.31963
H         73.03731        61.18483         1.43845
H         73.01197        63.59837         1.25544
H         72.99329        65.46376         1.15252
H         72.92073        67.87556         1.32426
H         72.84337        69.76650         1.51105
H         72.70702        72.21083         1.75406
H         70.54178        73.40177         1.35553
