         252
 CSIRO Nanostructure Databank - Neutral Graphene Oxide Data Set
C         30.55174        31.67399        -0.22876
C         30.61691        32.80538        -0.71657
C         30.53248        35.84902        -0.66929
C         30.42308        37.09600        -0.53273
C         30.37894        40.28836        -0.75223
C         30.26951        41.52876        -0.91570
C         32.71980        29.11534         1.35463
C         31.63921        29.61400         0.91234
C         32.86116        31.62093         0.42003
C         31.59233        30.90458         0.38794
C         32.96511        32.96603        -0.11350
C         31.84580        33.62320        -0.98441
C         32.84825        35.87308        -0.39271
C         31.70354        35.07757        -0.65915
C         32.76550        37.27676        -0.24510
C         31.51293        37.99470        -0.38808
C         32.72703        40.14994        -0.78991
C         31.45422        39.40556        -0.50656
C         32.72214        41.64341        -1.02985
C         31.37563        42.41823        -1.27507
C         32.71078        44.36967        -0.97409
C         31.57701        43.85066        -1.02792
C         35.28616        27.47980         1.84391
C         35.19345        28.96237         1.95264
C         33.98994        29.65794         1.47833
C         35.29876        31.71563         0.97436
C         34.03578        31.00188         0.96991
C         35.31991        33.08977         0.59193
C         34.12416        33.70540         0.05683
C         35.24541        35.92087         0.37063
C         34.18660        35.14715        -0.43378
C         35.29439        37.38485         0.01895
C         33.96813        38.09938         0.20360
C         35.27497        40.20247        -0.36988
C         34.00892        39.44395        -0.48997
C         35.21842        41.65229        -0.20080
C         33.90597        42.40470        -0.49731
C         35.20245        44.51825        -0.33210
C         34.01351        43.87620        -0.64689
C         35.41288        45.92605        -0.18210
C         37.65503        27.39171         1.12561
C         36.35364        26.96871         1.43573
C         37.84261        28.82039         1.70897
C         36.54075        29.65064         1.78784
C         37.75221        31.73752         1.18345
C         36.52886        31.05717         1.29649
C         37.76012        33.12741         0.93801
C         36.55702        33.81086         0.66070
C         37.73517        35.92029         0.11060
C         36.57811        35.22925         0.33550
C         37.74252        37.31532        -0.50238
C         36.44772        38.05830        -0.24596
C         37.71297        40.28472        -0.39532
C         36.47538        39.52593        -0.35121
C         37.69483        41.66886        -0.34490
C         36.47284        42.40397        -0.20796
C         37.69203        44.48593         0.33510
C         36.46485        43.80832        -0.09966
C         37.59403        45.87508         0.79302
C         36.40356        46.50021         0.29797
C         39.86501        24.61848         0.11508
C         38.85633        25.33296         0.34670
C         40.03866        27.39960         0.38283
C         38.75978        26.72961         0.61989
C         40.16711        28.78409         0.60323
C         38.87930        29.55968         0.83888
C         40.26907        31.67307         0.86238
C         39.05425        30.97664         1.42350
C         40.35811        33.14341         1.19858
C         39.03034        33.88891         1.01933
C         40.30172        35.94647         0.08237
C         39.01839        35.30006         0.49717
C         40.27588        37.43162        -0.12223
C         38.94672        38.15924         0.04402
C         40.24882        40.35940        -0.31382
C         39.00865        39.53652        -0.64427
C         40.21215        41.70380        -0.47170
C         38.92523        42.49984        -0.63184
C         40.20136        44.35926         0.54860
C         38.93505        43.79441         0.20957
C         40.35103        45.40966         1.46830
C         38.46296        46.44191         1.72199
C         40.09650        48.06973         2.32561
C         38.93674        47.76281         1.93249
C         42.43972        24.53085        -0.22428
C         41.16713        25.09280        -0.09767
C         42.54170        27.34370        -0.22974
C         41.20170        26.62419        -0.13542
C         42.62736        28.78381         0.15970
C         41.39612        29.49201         0.45257
C         42.68547        31.66537         0.43947
C         41.41484        30.94939         0.57359
C         42.76080        33.04723         0.48752
C         41.54980        33.83868         0.57429
C         42.80217        35.89087        -0.00154
C         41.56101        35.19267         0.30493
C         42.80042        37.39124         0.00099
C         41.55172        38.19830         0.11324
C         42.71398        40.23543        -1.04297
C         41.61414        39.73795        -0.01741
C         42.77953        41.76884        -0.93234
C         41.46921        42.47636        -0.62346
C         42.73264        44.56723         0.21319
C         41.45340        43.88489        -0.09983
C         42.70749        45.79434         0.85047
C         41.48506        46.29365         1.48787
C         42.67942        48.26388         2.05838
C         41.40091        47.61973         2.04068
C         43.52890        25.16827        -0.25054
C         45.04319        27.18883        -0.29839
C         43.82830        26.54473        -0.23584
C         45.06239        28.71568        -0.50076
C         43.87150        29.39951         0.17787
C         45.23112        31.58192         0.24695
C         43.93559        30.85879         0.44014
C         45.18294        33.00957        -0.28041
C         44.09019        33.78823         0.50749
C         45.26873        35.94240        -0.20252
C         43.99121        35.22750         0.05367
C         45.32252        37.42155         0.17867
C         44.07117        38.09596        -0.36832
C         45.36934        40.30085        -0.51146
C         44.08705        39.54273        -0.77210
C         45.44895        41.77364        -0.91189
C         44.07992        42.51277        -0.75587
C         45.33249        44.55384         0.19248
C         44.02535        43.83619        -0.01334
C         45.24983        46.06562         0.38033
C         43.94417        46.66168         0.77821
C         43.72840        47.91643         1.49731
C         47.44677        27.24529        -0.69074
C         46.35771        26.67873        -0.43926
C         47.71147        28.65339        -0.72239
C         46.44149        29.33619        -0.23139
C         47.67046        31.57063        -0.48648
C         46.49579        30.79712         0.01883
C         47.70109        33.01791        -0.15874
C         46.53191        33.69925        -0.15632
C         47.84317        35.87441        -0.13333
C         46.54520        35.17211        -0.28049
C         47.85394        37.34852        -0.34613
C         46.56680        38.12933        -0.32578
C         47.88926        40.30790        -0.47626
C         46.53520        39.62719        -0.29053
C         47.90248        41.79610        -0.15456
C         46.67318        42.52479        -0.37757
C         47.88831        44.65992        -0.18334
C         46.61890        43.89893        -0.20128
C         47.65430        46.03686         0.25181
C         46.60943        46.57145         0.63117
C         50.21203        28.87790        -1.16083
C         48.87816        29.34776        -0.91193
C         50.17204        31.67977        -1.08413
C         48.88261        30.85970        -0.99417
C         50.23238        33.04078        -0.44284
C         49.00803        33.66544         0.24465
C         50.27814        35.89479         0.27050
C         48.99627        35.17858         0.04957
C         50.29845        37.37680         0.06092
C         49.13851        38.05730        -0.14481
C         50.14326        40.17930         0.89906
C         49.01177        39.51446         0.18384
C         50.08395        41.70963         1.17944
C         49.08107        42.42232         0.24254
C         50.40549        44.46317         0.62076
C         49.18981        43.88421         0.03304
C         51.29992        29.45136        -1.28120
C         52.65683        31.54829        -0.63152
C         51.69762        30.84648        -1.54234
C         52.59595        32.78985        -0.37987
C         51.54801        33.66218        -0.07168
C         52.69104        36.01132         0.17029
C         51.58324        35.06675         0.33393
C         52.69972        37.23606         0.32908
C         51.59720        38.20910         0.02016
C         52.45448        40.26703         1.31830
C         51.48133        39.43845         0.89104
C         52.52187        41.54260         1.57352
C         51.51035        42.40325         1.28829
C         51.32361        43.79743         1.12763
O         47.87228        31.34031        -1.93348
O         43.40561        42.47764        -2.04274
O         44.76537        31.33683         1.60569
O         49.05366        39.55550         1.66729
O         42.25977        37.79320         1.33275
O         40.30590        36.53865        -1.27669
O         44.45415        46.75048        -0.59341
O         44.72955        43.77647         1.28785
O         34.62363        35.05603        -1.84317
O         50.86350        35.43301         1.56412
O         45.80433        35.58258        -1.51392
O         41.27859        43.61543        -1.53806
O         41.72370        27.12370        -1.43212
O         46.71401        29.84662         1.10609
O         34.24977        42.00615         0.86501
O         47.13446        37.69898        -1.58902
O         32.21150        41.97329        -2.35552
O         44.24507        38.45574        -1.76374
O         50.06722        32.84765        -1.91941
O         48.78658        44.36927        -1.25865
O         33.48373        39.43513        -1.85457
O         35.86705        29.51490         3.10144
O         39.31417        45.52696         2.41245
O         38.98983        35.03035         1.96340
O         40.64990        33.19140         2.64132
H         40.36006        34.08139         2.95352
O         45.34375        37.51968         1.61337
H         44.57798        37.02870         1.98243
O         44.80531        32.93765        -1.66634
H         45.06099        33.79316        -2.08774
O         39.25832        30.87899         2.84968
H         39.77157        31.67725         3.13182
O         38.78621        42.87161        -2.02888
H         39.61333        43.35472        -2.27764
O         33.78591        38.36607         1.61714
H         33.87853        37.49914         2.08146
O         42.05130        40.29749         1.24067
H         42.10224        39.56978         1.90383
O         38.73959        38.39534         1.44799
H         38.71102        37.53483         1.91862
O         42.27449        39.91752        -2.35992
H         42.84089        39.18770        -2.70722
O         45.74714        41.71566        -2.33705
H         44.88719        41.81181        -2.82049
O         51.91533        31.09918        -2.87512
H         51.72457        32.04683        -3.05292
O         48.16842        40.24929        -1.89402
H         47.41380        40.67703        -2.36823
O         39.13506        39.29519        -2.06449
H         39.11340        40.15983        -2.52794
O         38.25051        29.68672        -0.46429
H         38.94541        29.84958        -1.13609
O         38.33692        28.57248         3.01741
H         37.61124        28.76180         3.65574
O         34.79064        35.83381         1.76350
H         35.56968        35.94546         2.34909
O         51.72367        38.66719        -1.33095
H         52.56530        39.16056        -1.42231
O         32.22777        33.51143        -2.35015
H         32.28542        32.56314        -2.58813
O         49.12759        33.38493         1.66036
H         49.78823        34.02088         2.03652
O         49.52341        41.89538         2.48778
H         49.02775        41.07422         2.72157
O         34.73355        36.41507        -2.33129
H         33.99734        36.47970        -2.98795
O         44.52957        33.92256         1.88455
H         44.60108        33.00608         2.25760
O         37.80065        37.14536        -1.92564
H         38.72143        36.90117        -2.17759
O         44.87880        28.90940        -1.93004
H         44.01767        28.52241        -2.19790
