         404
 CSIRO Nanostructure Databank - Neutral Graphene Oxide Data Set
C          1.21698         3.31524        -0.06585
C          0.08372         3.98734        -0.39385
C          1.16914         6.18740        -0.18580
C          0.02426         5.42174        -0.36983
C          1.17477         7.64254        -0.31257
C         -0.03174         8.37428        -0.34000
C          1.15667        10.49765        -0.49866
C         -0.04530         9.75915        -0.41739
C          1.15388        11.96548        -0.59327
C         -0.04381        12.70575        -0.68814
C          1.14953        14.84555        -0.73939
C         -0.04929        14.09528        -0.74595
C          1.14262        16.32085        -0.73374
C         -0.05987        17.07118        -0.73981
C          1.15889        19.19349        -0.59052
C         -0.04791        18.45578        -0.68311
C          1.18308        20.64726        -0.51115
C         -0.00522        21.40641        -0.53337
C          1.22073        23.48612        -0.16775
C          0.01570        22.78626        -0.38063
C          1.21628        24.90306         0.16107
C          0.09158        25.70293         0.08539
C          1.22544        27.73713         0.89052
C          0.09772        27.08397         0.43061
C          1.23403        29.14202         1.27350
C          0.06917        29.83907         1.50069
C          1.26467        31.90294         1.96983
C          0.09578        31.19901         1.94164
C          1.33892        34.17609         1.64718
C          0.16939        34.97226         1.67344
C          1.22937        36.50689         0.17572
C          0.08122        36.09918         0.89102
C          1.21643        37.79036        -0.44454
C          3.69984         3.32748         0.35514
C          2.39681         4.06554         0.49482
C          3.61918         6.18859        -0.10600
C          2.42603         5.50571         0.02260
C          3.66318         7.62339        -0.27073
C          2.40675         8.35652        -0.37360
C          3.63894        10.52498        -0.60015
C          2.37371         9.77585        -0.49337
C          3.63821        12.00209        -0.46067
C          2.37329        12.69837        -0.58301
C          3.65105        14.82542        -0.76384
C          2.36069        14.11469        -0.67850
C          3.62936        16.32200        -0.74501
C          2.34879        17.04861        -0.65774
C          3.63857        19.18976        -0.49141
C          2.37793        18.46774        -0.56268
C          3.66048        20.61039        -0.42704
C          2.42568        21.34181        -0.39203
C          3.71019        23.43306        -0.03345
C          2.44850        22.75726        -0.19432
C          3.74700        24.81899         0.37495
C          2.46119        25.48089         0.70924
C          3.76775        27.67514         1.20613
C          2.45560        26.94873         1.11397
C          3.77968        29.15303         1.06989
C          2.53884        29.82408         1.48304
C          3.74653        32.11213         1.11873
C          2.58777        31.33505         1.65373
C          3.66233        33.51862         0.72701
C          2.45038        34.39455         0.81668
C          3.57001        36.25332        -0.42615
C          2.41144        35.68743         0.14894
C          3.59907        37.61577        -0.82209
C          2.37982        38.35471        -0.89444
C          6.16401         3.29534         0.19399
C          4.89520         3.97343         0.18142
C          6.17610         6.18264        -0.01508
C          4.88805         5.42871        -0.12634
C          6.14834         7.65757         0.06014
C          4.89145         8.30244        -0.17758
C          6.09535        10.49970         0.14923
C          4.91396         9.76237        -0.38328
C          6.07954        11.99241         0.08939
C          4.83719        12.68635        -0.31900
C          6.10700        14.78841        -0.26414
C          4.90204        14.11470        -0.40578
C          6.12165        16.25909        -0.13979
C          4.85234        17.03150        -0.27780
C          6.09974        19.17079        -0.46002
C          4.86971        18.49834        -0.45678
C          6.14260        20.58569        -0.40900
C          4.91029        21.30028        -0.35562
C          6.18577        23.40117        -0.07408
C          4.92247        22.72333        -0.18639
C          6.19721        24.84985         0.13045
C          4.95002        25.49788         0.47675
C          6.21857        27.69765         0.56050
C          5.02795        26.91457         0.89138
C          6.22310        29.12348         0.87458
C          4.94360        29.88248         0.96880
C          6.15203        32.01305         0.51360
C          4.93035        31.34849         0.89296
C          6.07754        33.40954         0.21212
C          4.82589        34.11003         0.18533
C          6.04754        36.20512        -0.73398
C          4.75914        35.37586        -0.68712
C          6.04966        37.69463        -0.73375
C          4.82910        38.32309        -0.98262
C          8.63887         3.34140         0.28695
C          7.38809         3.97628         0.30496
C          8.62594         6.20773         0.71618
C          7.35743         5.44699         0.51861
C          8.62654         7.66024         0.40371
C          7.36551         8.35344         0.17293
C          8.56402        10.52537         0.18214
C          7.38904         9.79651         0.15506
C          8.58368        11.97881         0.13120
C          7.37046        12.69852         0.01676
C          8.60330        14.82496        -0.08978
C          7.37389        14.10315        -0.11504
C          8.60121        16.26923        -0.25249
C          7.40207        16.95996        -0.32604
C          8.66035        19.14580        -0.65249
C          7.34716        18.39463        -0.63441
C          8.64013        20.58635        -0.32431
C          7.40932        21.28033        -0.26095
C          8.63204        23.47403         0.37737
C          7.38641        22.68997        -0.04125
C          8.60111        24.78789        -0.43629
C          7.37702        25.55773         0.02221
C          8.66727        27.74277        -0.05511
C          7.52625        26.95815         0.56155
C          8.64823        29.12028        -0.01587
C          7.50703        29.86960         0.57664
C          8.57594        32.02026        -0.00884
C          7.39925        31.32627         0.33547
C          8.51651        33.43442        -0.07512
C          7.29872        34.10100        -0.03198
C          8.45852        36.36261         0.11841
C          7.31612        35.54059        -0.38230
C          8.49800        37.80530        -0.22304
C          7.26362        38.40345        -0.61256
C         11.08122         3.33673         0.27617
C          9.88838         4.03214         0.43924
C         11.09267         6.19114         0.70188
C          9.92003         5.47962         0.66242
C         11.07418         7.68885         0.95109
C          9.81832         8.33489         0.39400
C         11.11709        10.52247         0.20725
C          9.83279         9.77784         0.09722
C         11.05618        11.98276         0.49225
C          9.80349        12.70944         0.19285
C         11.09881        14.85092         0.08566
C          9.82903        14.11982         0.07525
C         11.11205        16.25350        -0.11501
C          9.86922        16.98765        -0.30248
C         11.16702        19.10744        -0.68358
C          9.88823        18.36463        -0.43200
C         11.09714        20.56147        -0.28800
C          9.89501        21.23781        -0.12906
C         11.02841        23.36720        -0.62585
C          9.98712        22.70309         0.30308
C         11.08695        24.87361        -0.46466
C          9.88489        25.57988        -0.38097
C         11.09032        27.69079        -0.65909
C          9.87121        27.00470        -0.40156
C         11.04397        29.13371        -0.96794
C          9.76590        29.88869        -0.60435
C         11.01540        32.04598        -0.50108
C          9.83583        31.35132        -0.34407
C         11.06056        33.52636        -0.40775
C          9.75667        34.22494        -0.23697
C         11.02782        36.34231         0.41161
C          9.73842        35.61259         0.31411
C         11.00251        37.89910         0.11825
C          9.71421        38.47969        -0.27058
C         13.61135         3.35036        -0.00332
C         12.38163         3.96107         0.50242
C         13.61212         6.23673         0.37241
C         12.39076         5.49541         0.73223
C         13.60278         7.66750         0.42824
C         12.36713         8.41558         0.60757
C         13.59910        10.57140         0.38332
C         12.38016         9.79577         0.48672
C         13.61786        11.95326         0.30788
C         12.36314        12.72033         0.50381
C         13.57405        14.84907         0.23446
C         12.33677        14.16777         0.24321
C         13.57891        16.26961         0.17321
C         12.35134        16.97281        -0.04113
C         13.57659        19.10373         0.03880
C         12.38350        18.38681        -0.16961
C         13.59548        20.53901        -0.05712
C         12.36109        21.28247        -0.25532
C         13.59706        23.41692        -0.44102
C         12.34813        22.65986        -0.39758
C         13.57675        24.89181        -0.33596
C         12.32061        25.58184        -0.48525
C         13.61163        27.67658        -0.83773
C         12.31062        26.98872        -0.65035
C         13.64608        29.18359        -1.03529
C         12.32758        29.91590        -1.14204
C         13.57306        32.16456        -0.71870
C         12.28232        31.40824        -0.93843
C         13.57073        33.53735        -0.16324
C         12.31929        34.24754        -0.06702
C         13.51430        36.39554         0.41114
C         12.28090        35.60417         0.21947
C         13.49866        37.81939        -0.03377
C         12.28182        38.46582        -0.28925
C         16.01109         3.43152        -0.52584
C         14.78325         4.07717        -0.14015
C         15.93883         6.25561        -0.37850
C         14.77531         5.52817         0.00961
C         15.91866         7.67643        -0.32035
C         14.78679         8.37602         0.16144
C         16.02034        10.57671        -0.17869
C         14.90909         9.83800         0.53131
C         16.09692        12.03131        -0.02794
C         14.86264        12.70629         0.19900
C         16.05301        14.84562         0.38508
C         14.82791        14.12482         0.27971
C         16.03498        16.27393         0.50700
C         14.80608        16.98412         0.33529
C         16.00760        19.12303         0.56292
C         14.79727        18.40558         0.31906
C         16.01325        20.55486         0.49215
C         14.80938        21.21907         0.13871
C         15.98947        23.42633         0.47742
C         14.85792        22.66774        -0.11944
C         15.96368        24.92008         0.40403
C         14.75762        25.59681        -0.12375
C         16.00699        27.71867        -0.09416
C         14.81801        27.00905        -0.31116
C         15.99399        29.16305        -0.17285
C         14.85143        29.88352        -0.55492
C         15.97865        32.04064         0.12180
C         14.86920        31.36139        -0.55607
C         16.04525        33.47608         0.14043
C         14.78844        34.18020         0.08711
C         16.04562        36.34312        -0.06974
C         14.82570        35.63359         0.35163
C         15.97767        37.74318        -0.35472
C         14.73073        38.43889        -0.32561
C         18.42489         3.51315        -1.13834
C         17.17076         4.14496        -0.79505
C         18.27304         6.33247        -1.17257
C         17.13558         5.58642        -0.77916
C         18.11195         7.72588        -1.37289
C         16.99787         8.41365        -0.89094
C         18.87420        10.91702        -0.78185
C         16.91722         9.85573        -0.91479
C         18.64886        12.12472        -0.08055
C         17.33255        12.75778         0.02302
C         18.50799        14.85415         0.71144
C         17.29749        14.14220         0.37545
C         18.48161        16.26488         0.94396
C         17.23689        16.99429         0.77885
C         18.38778        19.17006         1.27541
C         17.19745        18.40556         0.86052
C         18.44930        20.61770         1.00418
C         17.24298        21.30056         0.67837
C         18.45615        23.46294         0.79489
C         17.26739        22.71469         0.61920
C         18.44829        24.91162         0.69387
C         17.24701        25.64000         0.44854
C         18.45845        27.77725         0.44876
C         17.23786        27.04126         0.28260
C         18.44229        29.21585         0.44015
C         17.16560        29.86278         0.29733
C         18.76661        32.25634         0.56800
C         16.98572        31.22417         0.64132
C         18.56764        33.55526         0.04470
C         17.27835        34.20502         0.09627
C         18.42350        36.28432        -0.68568
C         17.24152        35.61697        -0.21873
C         18.36371        37.69031        -0.95762
C         17.15508        38.39937        -0.77060
C         19.55944         4.24317        -1.35308
C         20.77777         6.36962        -1.14476
C         19.56799         5.68935        -1.30561
C         20.96835         7.75397        -0.82295
C         20.09604         8.76581        -1.16477
C         21.08534        10.68399         0.14195
C         20.04107        10.12735        -0.63695
C         20.98433        11.97734         0.63041
C         19.79063        12.73351         0.51298
C         20.89351        14.83650         1.25346
C         19.73121        14.13898         0.86876
C         20.87372        16.21301         1.42582
C         19.68560        16.94386         1.26517
C         20.92203        19.20362         1.32719
C         19.69337        18.41236         1.49171
C         20.89195        20.55929         1.24479
C         19.66368        21.31942         1.12911
C         20.87523        23.51734         1.12984
C         19.68052        22.75765         1.01243
C         20.87175        24.89265         1.01215
C         19.67636        25.62722         0.78488
C         20.88017        27.81892         0.73442
C         19.67915        27.06990         0.66286
C         20.88044        29.19469         0.57796
C         19.68540        29.93526         0.44729
C         20.83979        31.97014        -0.56867
C         19.78793        31.37667         0.16988
C         20.81456        33.33173        -0.87121
C         19.69119        34.15019        -0.60364
C         20.74389        36.25969        -1.44629
C         19.63220        35.56661        -0.93701
C         20.68572        37.64023        -1.69369
C         19.52314        38.35230        -1.45162
O          1.27873        33.14680         2.58412
O          7.99593        18.76568        -1.91668
O         13.83730        28.27242        -2.16593
O          7.20755        29.48645         1.97030
O          7.75816         5.86449         1.86637
O         12.53750         4.56775         1.84426
O          6.97316        35.73739        -1.79999
O         17.87936        10.52579        -1.68928
O         10.36492        34.16746        -1.56526
O          5.32618        16.67340         1.07062
O          3.80960        15.61403        -2.01799
O         10.05734        29.48210        -1.98217
O         14.49457        31.99989        -1.83029
O          2.83282        30.42694         2.79828
O          5.85543        11.26177         1.37719
O         14.55492        22.99597        -1.51696
O         18.86481        18.82086         2.62760
O         11.66415        12.34994         1.76780
O          4.59657        27.19162         2.30433
O         12.23580        30.81750        -2.27732
O         11.06050        37.30312         1.46495
O          2.32215        25.89671         2.11435
O         19.09050         8.42832        -2.09586
O         17.87892        31.79986         1.55830
O         15.63852        24.20342         1.67437
O          8.85629        35.88038         1.44273
O          4.50863        10.13008        -1.74496
O          5.71971         5.70195        -1.32189
O         10.60662        10.17123        -1.12811
O         14.25683        36.08688         1.63227
O         15.22801         9.85913         1.96643
H         14.45714         9.49021         2.44837
O          7.91309        26.75147         1.98347
H          7.70458        27.60037         2.44835
O          4.55349        34.83656        -2.02904
H          5.44358        34.80995        -2.45640
O          2.15052         4.14334         1.95377
H          1.26384         4.54595         2.07373
O         10.60128        22.70244         1.60531
H          9.91368        23.01055         2.24686
O         11.31414        19.10361        -2.15543
H         10.45480        19.38889        -2.53677
O          8.38511        24.41823        -1.82329
H          8.52891        25.21081        -2.38019
O         10.65339        23.09036        -1.99868
H         11.38503        23.38241        -2.58157
O          8.41985        23.80688         1.77398
H          8.14601        24.75120         1.87410
O         10.96489         7.84424         2.40831
H         10.24062         7.26048         2.72253
H          1.24510         2.21598        -0.08297
H         -0.81380         3.43714        -0.71248
H         -0.93582         5.89975        -0.60628
H         -0.99201         7.84471        -0.27482
H         -1.01469        10.27470        -0.41599
H         -1.01078        12.18547        -0.71283
H         -1.01897        14.60767        -0.80489
H         -1.02995        16.55951        -0.79986
H         -1.01142        18.98254        -0.70512
H         -0.97693        20.90954        -0.65374
H         -0.93963        23.32805        -0.37877
H         -0.85249        25.28667        -0.29252
H         -0.83635        27.64540         0.28823
H         -0.90437        29.33974         1.40814
H         -0.83105        31.67661         2.28333
H         -0.65295        34.66422         2.33156
H         -0.82225        36.72412         0.88624
H          0.27322        38.35486        -0.46475
H          3.68901         2.24538         0.55840
H          2.39860        39.38354        -1.28009
H          6.16736         2.19462         0.17689
H          4.79342        39.41227        -1.13213
H          8.67623         2.25236         0.13142
H          7.24312        39.49175        -0.77477
H         11.05420         2.28953        -0.06159
H          9.73290        39.49267        -0.70099
H         13.59220         2.28728        -0.28743
H         12.28706        39.43333        -0.81348
H         16.02132         2.33333        -0.59504
H         14.72633        39.49966        -0.61833
H         18.46332         2.41448        -1.17618
H         17.12193        39.47424        -1.00279
H         20.51231         3.72555        -1.54117
H         21.67787         5.73705        -1.06723
H         21.87541         8.00548        -0.25213
H         22.01427        10.11675         0.29409
H         21.85443        12.40795         1.14243
H         21.84125        14.30231         1.39734
H         21.80071        16.72757         1.71217
H         21.88885        18.68457         1.25967
H         21.84861        21.09344         1.16311
H         21.83233        23.01235         1.31583
H         21.82934        25.42185         1.10447
H         21.84137        27.31079         0.88518
H         21.83920        29.73193         0.59328
H         21.69167        31.36068        -0.90151
H         21.67698        33.75905        -1.40075
H         21.68359        35.72637        -1.64353
H         21.57471        38.15576        -2.08295
H         19.47870        39.43209        -1.65316
