         236
 CSIRO Nanostructure Databank - Neutral Graphene Oxide Data Set
C        -11.17620         0.72576         0.13220
C         -9.98962         1.45790         0.54694
C         -8.78605         0.69880         0.86692
C         -7.61947         1.41311         1.47450
C         -6.30196         0.67902         1.61059
C         -4.99171         1.43043         1.76920
C         -3.72857         0.68300         1.46889
C         -2.46188         1.44092         1.26164
C         -1.23775         0.70268         1.31599
C          0.01318         1.41546         1.60760
C          1.35397         0.66180         1.49852
C          2.62521         1.37426         1.35320
C          3.80342         0.65921         1.05807
C          5.11660         1.32401         1.20921
C          6.31838         0.66987         0.76571
C          7.62429         1.36376         1.05134
C          8.77603         0.72593         0.25701
C         10.13078         1.37205         0.61833
C         11.23550         0.68022        -0.14951
C        -10.01470         2.81966         0.58513
C         -8.89483         3.70102         1.05188
C         -7.61393         2.93522         1.51010
C         -6.29146         3.68282         1.54936
C         -4.92695         2.99893         1.82581
C         -3.80773         3.50696         0.88940
C         -2.48634         2.81846         1.19691
C         -1.22648         3.57373         1.33442
C          0.06681         2.86465         1.37266
C          1.26717         3.52771         1.18080
C          2.56339         2.84847         1.48836
C          3.85345         3.63797         1.29848
C          5.14688         2.88675         1.28253
C          6.36198         3.54205         0.75717
C          7.55916         2.84255         0.70015
C          8.79271         3.51206         0.33269
C         10.01888         2.85304         0.33724
C         -8.54878         4.73516         0.01637
C         -7.49460         5.67561         0.29560
C         -6.25520         5.13250         1.07095
C         -4.94180         5.81968         0.79607
C         -3.69584         5.01538         0.79559
C         -2.49564         5.65798         0.56112
C         -1.20622         5.03797         0.97574
C          0.07737         5.60896         0.51263
C          1.29712         4.88359         0.67373
C          2.53014         5.49898         0.29360
C          3.78819         4.93264         0.59238
C          5.00546         5.54816         0.16941
C          6.26383         4.90021         0.30341
C          7.47959         5.56822        -0.09023
C          8.69823         4.89931        -0.02848
C         -7.33464         6.86685        -0.55298
C         -6.18725         7.60097        -0.60658
C         -4.93434         7.15098         0.05603
C         -3.63179         7.57063        -0.62623
C         -2.44032         7.04565         0.16595
C         -1.19286         7.65059         0.15368
C          0.04354         6.93118         0.04175
C          1.16509         7.46429        -0.75700
C          2.48663         6.68428        -0.58757
C          3.74149         7.37409        -0.89313
C          4.95000         6.83759        -0.49116
C          6.19188         7.53583        -0.79320
C          7.40137         6.92782        -0.56702
C         -6.11542         8.80564        -1.40689
C         -4.94902         9.46490        -1.63875
C         -3.64888         8.99948        -1.19204
C         -2.56014         9.72017        -1.63031
C         -1.19318         9.44724        -1.22076
C         -0.01935         9.47381        -1.90441
C          1.21511         8.82699        -1.41069
C          2.40843         9.30470        -1.85118
C          3.69547         8.51704        -1.87568
C          4.93137         9.37290        -1.80879
C          6.09453         8.88526        -1.33591
C        -11.16327        -0.61847        -0.03088
C         -9.94214        -1.38124         0.15131
C         -8.76224        -0.65668         0.63310
C         -7.50421        -1.44235         0.74123
C         -6.23287        -0.76125         1.13836
C         -4.94227        -1.38243         0.72591
C         -3.73465        -0.73623         1.03336
C         -2.51082        -1.42983         0.94411
C         -1.24400        -0.71378         1.14630
C         -0.03882        -1.40096         0.98863
C          1.23286        -0.67412         0.88092
C          2.50329        -1.36053         0.44994
C          3.80346        -0.71637         0.68684
C          4.99276        -1.42983         0.28984
C          6.18840        -0.55189        -0.10272
C          7.50139        -1.33972        -0.24871
C          8.77164        -0.80151         0.40015
C          9.99511        -1.45712        -0.22223
C         11.17066        -0.63487        -0.46064
C         -9.91543        -2.72789        -0.11704
C         -8.64185        -3.52844         0.00726
C         -7.47165        -2.57066        -0.27804
C         -6.12745        -3.29407        -0.41793
C         -4.91483        -2.70603         0.21841
C         -3.71535        -3.44828         0.25145
C         -2.52293        -2.81488         0.65083
C         -1.21822        -3.50660         0.36904
C         -0.00431        -2.86911         1.00878
C          1.29710        -3.57370         0.83528
C          2.45839        -2.84187         0.25241
C          3.71960        -3.57432        -0.05542
C          4.97459        -2.77642        -0.06924
C          6.16969        -3.51194        -0.54202
C          7.48576        -2.80121        -0.54263
C          8.74695        -3.58265        -0.40839
C          9.97275        -2.80282        -0.47849
C         -8.58291        -4.80561        -0.79973
C         -7.36298        -5.47767        -0.99641
C         -6.08083        -4.70728        -0.93395
C         -4.72990        -5.44985        -1.02792
C         -3.74846        -4.95955         0.05545
C         -2.39624        -5.62227        -0.13887
C         -1.26295        -5.01211         0.28615
C          0.00188        -5.77802         0.38352
C          1.29505        -5.06476         0.66019
C          2.56674        -5.74774         0.36267
C          3.74085        -5.05788         0.12640
C          4.98352        -5.76442        -0.00412
C          6.19173        -5.02836        -0.43141
C          7.50108        -5.73595        -0.34968
C          8.72572        -4.95237        -0.40370
C         -7.31575        -6.86868        -1.15198
C         -6.10784        -7.65653        -0.71201
C         -4.79485        -6.96116        -0.93083
C         -3.62753        -7.66788        -0.91405
C         -2.30467        -6.93778        -0.90553
C         -1.13106        -7.80122        -0.50149
C          0.06089        -7.17909        -0.09812
C          1.27252        -7.89012        -0.03983
C          2.53690        -7.25266         0.50749
C          3.80329        -7.90380         0.03334
C          5.00766        -7.17097         0.03451
C          6.31418        -7.92806         0.09479
C          7.52868        -7.09003        -0.21285
C         -6.06670        -9.08769        -1.18112
C         -4.90315        -9.76540        -1.27476
C         -3.61506        -9.12280        -1.03700
C         -2.43201        -9.82654        -1.03288
C         -1.15139        -9.19334        -0.75985
C          0.06400        -9.90563        -0.72371
C          1.28898        -9.26055        -0.42012
C          2.55737        -9.93226        -0.54994
C          3.77424        -9.26859        -0.38579
C          5.04046        -9.88081        -0.78874
C          6.22061        -9.23967        -0.65435
O          5.82229        -0.04389        -1.41782
H          6.24063        -0.65027        -2.07670
O          0.55457        -5.71303         1.76309
O          0.71141         0.86032         2.78144
O         -0.98537        -3.13324        -1.00012
O         -1.95100        -6.58838        -2.27652
H         -2.63447        -5.94521        -2.59632
O          5.95829        -4.34510        -1.72302
O         -4.54090         3.38907         3.13630
H         -5.25778         3.12654         3.75383
O          7.66008        -1.79212        -1.62162
O         -1.11212         9.03502         0.12143
O         -3.60641         6.75835        -1.85502
H         -2.84001         7.04403        -2.39659
O          1.60229         6.46716        -1.76132
O         -5.98158        -3.57251        -1.86733
O         -4.21227         0.85251         2.85807
O          7.87822         1.26281         2.48852
H          7.05881         1.60297         2.93129
O          8.50379         1.02725        -1.12679
H          9.05831         0.44675        -1.68942
O          0.82800        -3.24978         2.18701
O         -7.74727        -1.89191        -1.52346
H         -7.38855        -2.45790        -2.24753
O          3.22003         3.52964         2.61080
O          5.32358         2.08534         2.47218
O         -6.28072        -7.70310         0.76291
H         -5.77071        -6.94650         1.14257
O         -4.31330        -5.50331         1.29895
H         -3.74291        -5.22294         2.04669
O         -7.11848         3.50285         2.74830
O         -7.19055         0.83967         2.74889
O          8.73272        -1.16937         1.79247
H          9.41584        -0.62547         2.25190
O         -4.17915        -5.15941        -2.33041
H         -4.39636        -4.21936        -2.53800
O         10.44288         1.15282         2.02328
H          9.69696         1.53312         2.54928
O         -4.85953         7.11830         1.49298
O         -8.49297        -3.97361         1.38931
H         -9.30810        -4.44961         1.65144
O          6.48490        -8.30016         1.50947
H          5.66189        -8.75198         1.79568
O          2.75665        -3.21229        -1.12461
O          2.51483        -7.51685         1.96295
H          1.73859        -7.00699         2.31221
O         -9.42560         4.42074         2.19397
H         -8.65316         4.84316         2.64432
O         -4.23247         3.05720        -0.44307
H         -3.58598         3.38395        -1.10482
O          3.68338         7.88186        -3.20523
H          2.93845         7.23573        -3.18719
O         -1.26375         4.62909         2.37728
O          1.68352        -0.63030        -0.52942
O         -7.21786         5.95065         1.74222
O         -6.95301        -1.68572         2.04931
H         12.02598        -1.11809        -0.95969
H         12.14905         1.25057        -0.37759
H         10.93417         3.42457         0.11796
H          9.61463         5.42605        -0.33542
H          8.33614         7.45517        -0.80926
H          7.00864         9.49776        -1.35918
H          4.88205        10.38707        -2.23255
H          2.41047        10.23801        -2.43656
H          0.01526         9.89851        -2.91895
H         -2.74640        10.58293        -2.29195
H         -4.97138        10.40336        -2.21360
H         -7.05640         9.20568        -1.81234
H         -8.20780         7.18706        -1.14192
H         -9.19461         4.89902        -0.85800
H        -10.94882         3.34173         0.32786
H        -12.09631         1.30196        -0.04386
H        -12.07215        -1.15287        -0.34421
H        -10.83928        -3.23303        -0.44134
H         -9.50608        -5.40897        -0.85049
H         -8.27518        -7.41159        -1.18682
H         -7.02386        -9.60014        -1.36162
H         -4.90350       -10.83038        -1.55424
H         -2.44918       -10.91524        -1.19556
H          0.07076       -10.97900        -0.96678
H          2.56210       -10.97651        -0.89877
H          5.00034       -10.87669        -1.25619
H          7.15432        -9.72649        -0.97357
H          8.50254        -7.60098        -0.15007
H          9.67735        -5.50416        -0.36147
H         10.89580        -3.31552        -0.79288
