         480
 CSIRO Nanostructure Databank - Neutral Graphene Oxide Data Set
C         37.55357        50.34346         1.59574
C         36.36327        51.05361         1.62850
C         37.52255        53.03981         0.89313
C         36.34736        52.41200         1.27605
C         40.06825        48.85570         1.57325
C         40.02089        50.22132         1.18024
C         38.76803        50.96071         1.21004
C         39.98413        52.98787         0.44423
C         38.74988        52.33622         0.84929
C         40.01248        54.35318         0.07687
C         42.46752        48.74142         1.16076
C         41.24490        48.14265         1.56770
C         42.45027        50.10654         0.75308
C         41.21958        50.85072         0.76809
C         42.39275        52.89668        -0.02396
C         41.19925        52.25071         0.39505
C         42.41447        54.27312        -0.33816
C         41.18960        54.98057        -0.28656
C         44.92420        45.92517         1.53643
C         43.75032        46.63550         1.54396
C         44.91367        48.63536         0.74178
C         43.70218        48.00167         1.14174
C         44.89159        50.01874         0.34554
C         43.66872        50.71593         0.32156
C         44.92796        52.82717        -0.40846
C         43.61588        52.09291        -0.19763
C         44.92108        54.30506        -0.44128
C         43.67993        54.97966        -0.57722
C         44.91273        57.05879        -0.88650
C         43.70942        56.36721        -0.81924
C         47.41724        44.36985         1.36598
C         47.35508        45.76137         1.05643
C         46.15164        46.51909         1.11227
C         47.37138        48.57312         0.41134
C         46.13813        47.90057         0.72939
C         47.38138        49.98829         0.19522
C         46.14726        50.70111         0.08959
C         47.40028        52.78926        -0.22053
C         46.17523        52.09642        -0.13399
C         47.44339        54.30026        -0.09498
C         46.13771        55.01591        -0.41964
C         47.41322        57.19143        -0.62012
C         46.13756        56.41091        -0.65280
C         47.49973        58.58383        -1.07570
C         49.89028        44.30462         1.19979
C         48.58960        43.66127         1.41830
C         49.85718        45.61298         0.46182
C         48.56694        46.39410         0.50756
C         49.82742        48.56732         0.34024
C         48.59541        47.86694         0.37043
C         49.87338        49.97242         0.21880
C         48.62428        50.67727         0.05964
C         49.88424        52.76459        -0.45740
C         48.60301        52.08112        -0.16140
C         49.90564        54.19786        -0.85684
C         48.57297        54.93752        -0.95571
C         49.96834        57.09845        -0.99803
C         48.71250        56.41606        -0.64205
C         49.96592        58.47820        -1.14167
C         48.70644        59.18382        -1.25062
C         52.38947        41.35940         0.95346
C         51.25835        42.06197         1.29815
C         52.37920        44.16902         0.48227
C         51.20462        43.52704         1.21645
C         52.42883        45.67141         0.59421
C         51.16322        46.37067         0.13684
C         52.37737        48.58685         0.60476
C         51.08714        47.82514         0.57669
C         52.37005        50.04671         0.38317
C         51.14285        50.68450         0.25815
C         52.41727        52.89946        -0.07415
C         51.12806        52.15546         0.09388
C         52.46368        54.16631        -0.92574
C         51.18021        54.97032        -0.82630
C         52.48020        56.99846        -1.47925
C         51.19447        56.32389        -1.02832
C         52.46061        58.49718        -1.27144
C         51.23571        59.19845        -1.19553
C         52.46077        61.29387        -1.06609
C         51.26141        60.60412        -1.09635
C         55.00115        39.92813         0.54847
C         54.89097        41.34196         0.55840
C         53.64818        42.00227         0.74175
C         54.94646        44.22692         0.81075
C         53.65288        43.46549         0.89921
C         54.90031        45.68173         0.63873
C         53.62480        46.35701         0.62413
C         54.92077        48.59278         0.47865
C         53.64129        47.82992         0.37496
C         54.88141        50.07972         0.56982
C         53.64421        50.76048         0.34159
C         54.90061        52.88363         0.09080
C         53.68191        52.14869         0.09270
C         54.87426        54.29760        -0.19341
C         53.71311        54.96623        -0.62284
C         54.98531        57.03114        -1.07903
C         53.73233        56.34367        -0.92919
C         54.94488        58.46406        -1.49576
C         53.67692        59.20110        -1.25037
C         54.95484        61.34793        -0.99718
C         53.69455        60.61438        -1.13283
C         54.94419        62.72539        -0.66812
C         57.34791        39.94256        -0.15509
C         56.20381        39.26674         0.29032
C         57.23567        41.40203        -0.30409
C         56.09365        42.11472         0.29748
C         57.36122        44.27403         0.16758
C         56.15913        43.49855         0.40973
C         57.33770        45.68263         0.38654
C         56.12032        46.37383         0.57671
C         57.39549        48.56717         1.07834
C         56.07145        47.79970         1.08482
C         57.34348        50.08840         1.04911
C         56.08396        50.80907         0.69084
C         57.36876        52.96880         0.46321
C         56.11600        52.20777         0.43620
C         57.35447        54.33506         0.22834
C         56.08275        55.14232         0.12174
C         57.49045        56.97596        -1.06908
C         56.17583        56.39341        -0.74020
C         57.53974        58.52392        -1.45321
C         56.23627        59.26469        -1.51695
C         57.40183        61.39696        -0.80336
C         56.19947        60.69023        -1.09889
C         57.36924        62.78594        -0.50382
C         56.11300        63.42869        -0.45150
C         59.89881        37.17278        -0.45306
C         58.70832        37.85368        -0.25409
C         59.78971        39.99816        -0.68907
C         58.62115        39.28259        -0.37033
C         59.74142        41.44959        -0.91511
C         58.48672        42.21088        -0.61538
C         59.84895        44.26683        -0.09391
C         58.57754        43.61466        -0.18799
C         59.85979        45.65838         0.55220
C         58.61252        46.45024         0.12095
C         59.82951        48.56510         0.48906
C         58.64574        47.88535         0.65032
C         59.93981        50.03098         0.71260
C         58.63859        50.83353         0.93539
C         59.87359        52.90159         0.57330
C         58.63475        52.26562         0.63312
C         59.92224        54.36385         0.55554
C         58.58976        55.12473         0.34674
C         59.95965        56.75762        -0.82144
C         58.69320        56.34938        -0.47013
C         60.02600        58.79165        -1.34323
C         58.74484        59.35278        -1.21129
C         59.89457        61.44104        -0.62285
C         58.67742        60.71837        -0.84400
C         59.86089        62.85306        -0.37279
C         58.60576        63.52570        -0.29057
C         59.79215        65.59985         0.20232
C         58.60214        64.90134        -0.00283
C         62.40967        35.71853        -0.89315
C         62.36203        37.15442        -0.82455
C         61.12272        37.84435        -0.63169
C         62.35672        40.02449        -0.94334
C         61.12608        39.33482        -0.41356
C         62.31280        41.48228        -1.15615
C         61.02411        42.24175        -0.98567
C         62.35286        44.23275        -0.14165
C         61.03680        43.62035        -0.44265
C         62.39637        45.72952         0.25914
C         61.11657        46.46812         0.26621
C         62.33979        48.63440         0.18987
C         61.07421        47.83567         0.21185
C         62.26839        50.05066        -0.37512
C         61.09296        50.78593         0.21530
C         62.37591        52.88350         0.25600
C         61.10845        52.16784         0.34657
C         62.40454        54.27356         0.29968
C         61.19731        55.02344         0.25111
C         62.37212        57.19076        -0.20218
C         61.19589        56.35579        -0.19539
C         62.39258        58.56299        -0.53191
C         61.21053        59.36125        -0.84857
C         62.36866        61.51492        -0.49916
C         61.15503        60.76889        -0.61466
C         62.33768        62.89115        -0.33317
C         61.08130        63.58236        -0.19885
C         62.27984        65.74840         0.48052
C         61.03585        64.97259         0.09294
C         62.32335        67.18312         0.00102
C         64.85147        35.68263        -0.82345
C         63.60049        35.02162        -0.84810
C         64.84190        37.13427        -1.26227
C         63.57253        37.87941        -0.89966
C         64.84667        40.01423        -0.97924
C         63.56849        39.31458        -0.95472
C         64.87015        41.47082        -1.16609
C         63.59881        42.25853        -1.15729
C         64.82559        44.32409        -0.47143
C         63.61337        43.64279        -0.62932
C         64.84720        45.76379        -0.23769
C         63.65679        46.44295         0.03928
C         64.87834        48.61321        -0.28634
C         63.65961        47.90510         0.12056
C         64.81369        50.05626        -0.51762
C         63.57321        50.80677        -0.19783
C         64.96234        52.81672         0.40079
C         63.61628        52.14024         0.10881
C         64.94354        54.34270         0.36462
C         63.65180        55.04302         0.48174
C         64.90535        57.32898         0.44788
C         63.59192        56.55218         0.38639
C         64.84088        58.65303        -0.27632
C         63.64933        59.29625        -0.46920
C         64.80656        61.44572        -0.00037
C         63.67540        60.79209        -0.77571
C         64.78460        62.93244         0.20848
C         63.62625        63.68093        -0.43073
C         64.77730        65.79095         0.24759
C         63.56899        65.07333         0.11334
C         64.76219        67.22785         0.25362
C         63.49744        67.86803        -0.02131
C         67.26869        32.89441        -0.16707
C         66.11649        33.56338        -0.50565
C         67.24703        35.69693        -0.12839
C         66.06136        34.99053        -0.52972
C         67.30936        37.16635        -0.31385
C         66.11742        37.88398        -0.89408
C         67.27482        40.04594        -0.41969
C         66.05223        39.35217        -0.75144
C         67.31319        41.44346        -0.44878
C         66.14804        42.21069        -0.89603
C         67.30354        44.30940        -0.39268
C         66.08994        43.64855        -0.58698
C         67.32934        45.76799        -0.38009
C         66.08244        46.48135        -0.38655
C         67.33402        48.64958        -0.56324
C         66.08724        47.92430        -0.44529
C         67.36772        50.04727        -0.51811
C         66.11116        50.80911        -0.68330
C         67.41013        52.93610        -0.10979
C         66.08452        52.33366        -0.54677
C         67.40677        54.33327         0.11451
C         66.12865        55.04623         0.21684
C         67.36280        57.17022         0.13159
C         66.15846        56.49891         0.18011
C         67.40614        58.63730        -0.06601
C         66.12957        59.38893        -0.34267
C         67.22201        61.44336         0.75287
C         66.09688        60.80274        -0.00490
C         67.22937        62.95254         0.68009
C         66.07089        63.65029         0.42240
C         67.21090        65.82136         0.66553
C         66.02721        65.09514         0.38491
C         67.20690        67.25734         0.66596
C         65.98779        67.96216         0.40339
C         67.24109        70.06634         0.50512
C         66.04386        69.37698         0.32907
C         69.74327        31.49264         0.53777
C         69.65379        32.91000         0.59770
C         68.42427        33.58867         0.29153
C         69.41426        35.70595         1.18983
C         68.36232        35.01587         0.34897
C         69.41753        37.24538         1.10746
C         68.36596        37.95360         0.34435
C         69.61616        40.09346         0.43351
C         68.42452        39.33355         0.13215
C         69.71387        41.44119         0.10357
C         68.51732        42.17352        -0.22782
C         69.82930        44.29559        -0.51565
C         68.52563        43.56957        -0.33466
C         69.79095        45.70082         0.08901
C         68.54444        46.43455        -0.35498
C         69.79878        48.56917         0.00269
C         68.63678        47.88268        -0.73112
C         69.86626        50.01934        -0.45510
C         68.59153        50.78025        -0.36908
C         69.89999        52.83733         0.14394
C         68.60446        52.17095        -0.15658
C         69.90366        54.36187         0.30311
C         68.62083        55.06696         0.18682
C         69.85578        57.20597         0.20272
C         68.63283        56.48143         0.18011
C         69.88183        58.67365         0.56736
C         68.58889        59.39835         0.34695
C         69.77092        61.53712         0.38336
C         68.56104        60.78250         0.48048
C         69.71319        63.06056         0.33977
C         68.49535        63.61607         1.17707
C         69.45484        65.89334         1.51499
C         68.37565        65.12804         1.09175
C         69.61572        67.26582         1.24498
C         68.41900        67.98154         0.89524
C         69.73064        70.15132         0.97314
C         68.43333        69.39407         0.81074
C         69.59277        71.42180         1.77771
C         72.13344        31.57705         0.90831
C         70.94683        30.83619         0.69620
C         72.08648        32.94937         0.99474
C         70.85172        33.66645         0.87894
C         71.94337        35.85114         1.36277
C         70.78942        35.07351         1.04994
C         71.92055        37.20314         1.57386
C         70.68989        37.99714         1.41972
C         72.08888        39.98411         0.52936
C         70.80822        39.50278         1.16706
C         72.17840        41.27767         0.15241
C         70.99752        42.13201         0.09893
C         72.27581        44.26038        -0.11955
C         71.05576        43.50460        -0.11366
C         72.28895        45.63127        -0.19191
C         71.09540        46.43804        -0.15237
C         72.33967        48.58559        -0.04761
C         71.11304        47.82019        -0.14137
C         72.38188        49.93993        -0.09614
C         71.18433        50.73537        -0.44532
C         72.32838        52.95396        -0.24361
C         71.17840        52.20247        -0.21767
C         72.32124        54.37520        -0.13242
C         71.15526        55.09638         0.03899
C         72.26315        57.33697        -0.17990
C         71.10054        56.55092         0.03220
C         72.22316        58.73137        -0.25835
C         71.04990        59.45217         0.00097
C         72.09158        61.67757        -0.46273
C         70.96300        60.88104        -0.02436
C         72.15833        63.01980        -0.21937
C         71.11231        63.67571         0.52513
C         72.40330        65.84376         1.02975
C         71.37638        64.84428         1.21503
C         72.16705        67.18238         1.23296
C         70.90843        67.91146         1.35273
C         72.07339        70.05490         1.84543
C         70.92316        69.31949         1.41774
C         71.97341        71.36609         2.24678
C         70.69232        72.02003         2.29725
O         59.53515        50.49934         2.03292
O         63.41281        55.89829         1.69305
O         44.19801        52.23604        -1.54357
O         54.41089        48.15706        -0.83353
O         51.67444        52.97272         1.19105
O         64.41224        62.06034         1.31394
O         50.75737        44.27220         2.38597
O         70.56834        50.27242        -1.71276
O         57.49578        41.93359        -1.65848
O         59.22040        55.06021         1.65291
O         62.45686        44.66768         1.27608
O         57.40359        49.35833         2.31794
O         51.71974        48.14390         1.85048
O         69.65444        37.79730         2.46668
O         54.32399        43.87197         2.12235
O         60.13189        57.54808        -1.96623
O         49.00482        45.59923        -0.71967
O         69.94723        53.46468         1.46913
O         63.10026        48.48659         1.41251
O         65.73808        41.88808        -2.28028
O         60.24127        41.98476        -2.19954
O         70.46279        65.22541         2.20739
O         67.01018        58.99105        -1.47137
O         57.63825        57.47180        -2.43261
O         67.22499        37.48996        -1.77929
O         62.90300        41.99352        -2.41850
O         48.17315        56.91946         0.62573
O         49.98786        53.12390        -1.90094
O         55.53101        58.91641        -2.75648
O         65.36244        50.38829        -1.87400
O         69.66039        45.57143         1.53218
H         69.52748        46.48156         1.88762
O         63.97490        63.78235        -1.84862
H         63.28546        64.31634        -2.29521
O         51.27819        46.40796        -1.32064
H         50.35607        46.29326        -1.67018
O         64.82226        37.07251        -2.72786
H         65.76326        36.99940        -3.01187
O         65.80924        52.89580        -1.85111
H         65.53733        52.14925        -2.43653
O         59.81203        45.45950         1.97985
H         60.68648        45.09485         2.25082
O         65.34039        52.40038         1.73610
H         64.68586        52.75919         2.37152
O         70.08681        70.59524        -0.39412
H         70.91114        71.12196        -0.31542
O         52.59063        53.76369        -2.32469
H         51.72325        53.35908        -2.57922
O         47.73081        54.46810         1.31294
H         47.78074        55.43998         1.49738
O         70.11442        58.66910         2.03333
H         70.10079        59.60448         2.33092
O         62.03809        49.87105        -1.80588
H         62.14638        50.73890        -2.24808
O         66.92905        61.15217         2.18731
H         65.98166        61.40954         2.32571
O         69.00249        35.35895         2.55286
H         69.36139        36.07285         3.13322
O         58.71625        46.56064        -1.33135
H         57.82910        46.75524        -1.69967
O         70.80113        40.12053         2.49260
H         70.11142        39.64896         3.01312
O         48.14383        54.89460        -2.33435
H         48.48896        54.05546        -2.71964
O         63.99748        60.96056        -2.17772
H         63.30621        60.51308        -2.70793
O         65.07594        57.77722         1.83262
H         64.60487        57.11710         2.39733
O         62.21722        65.82340         1.95650
H         63.02708        66.29013         2.25477
O         61.26691        39.49953         1.08419
H         60.61407        38.89080         1.49536
O         68.67663        63.24106         2.56035
H         68.13215        62.43374         2.73872
O         55.86504        55.66730         1.49692
H         55.83286        54.89728         2.10484
O         52.22207        43.85472        -0.93391
H         51.92702        44.67658        -1.40254
O         69.44719        48.55006         1.41673
H         70.14082        49.03120         1.91574
O         68.98138        47.91354        -2.14387
H         68.31725        47.38917        -2.63770
O         69.95306        44.51147        -1.95829
H         69.94410        43.63630        -2.39992
O         52.52264        56.76600        -2.92383
H         52.63350        55.79415        -3.05349
O         69.36127        63.41429        -1.03240
H         70.03146        63.01516        -1.62726
O         55.67224        47.60561         2.47155
H         56.15044        48.27496         3.01723
H         37.53485        49.28199         1.87509
H         35.43316        50.55257         1.93023
H         37.48451        54.10257         0.62008
H         35.40522        52.97665         1.30207
H         39.15342        48.34428         1.89860
H         39.09032        54.94835         0.09114
H         41.22088        47.09271         1.88627
H         41.15460        56.04890        -0.53595
H         44.90696        44.87600         1.85833
H         42.83500        46.12631         1.87183
H         44.89036        58.13811        -1.08868
H         42.77819        56.92970        -0.96395
H         46.48919        43.83770         1.61614
H         46.58046        59.14351        -1.29782
H         48.57285        42.61414         1.75066
H         48.72179        60.23514        -1.56930
H         52.34491        40.26034         0.96306
H         50.36718        41.51601         1.63952
H         52.42594        62.38800        -0.99569
H         50.32549        61.17324        -1.02790
H         54.11909        39.32079         0.79318
H         53.99451        63.26722        -0.58035
H         56.21542        38.17401         0.39937
H         56.04407        64.49934        -0.22050
H         59.86694        36.07483        -0.46372
H         57.79709        37.26549        -0.09006
H         59.73950        66.66274         0.47495
H         57.65579        65.44932         0.09235
H         61.47338        35.14566        -0.88951
H         61.38208        67.71164        -0.20927
H         63.55531        33.92768        -0.74929
H         63.48420        68.93799        -0.27508
H         67.27408        31.79833        -0.23170
H         65.24362        32.98007        -0.82730
H         67.24258        71.16122         0.40862
H         65.13238        69.95201         0.11668
H         68.83883        30.89504         0.36221
H         68.61256        71.91678         1.83457
H         73.09204        31.05085         1.01657
H         70.98837        29.73942         0.64790
H         73.02107        33.49524         1.17912
H         72.91784        35.34778         1.43530
H         72.85740        37.72653         1.80991
H         72.97497        39.33379         0.49933
H         73.13695        41.67822        -0.20991
H         73.23615        43.72776        -0.05303
H         73.26500        46.13533        -0.23949
H         73.27814        48.04259         0.13596
H         73.33617        50.46027         0.06740
H         73.29032        52.46637        -0.45673
H         73.27953        54.89454        -0.26778
H         73.22692        56.83954        -0.35309
H         73.15248        59.25999        -0.51422
H         72.94480        61.17711        -0.93938
H         73.08629        63.56863        -0.44146
H         73.40537        65.54270         0.68653
H         73.04782        67.82772         1.08825
H         73.03416        69.53742         1.98144
H         72.85678        71.89039         2.63619
H         70.61428        72.99194         2.80549
