         598
 CSIRO Nanostructure Databank - Neutral Graphene Oxide Data Set
C         23.47955        69.81641         3.21196
C         23.42729        71.25379         3.25201
C         22.30592        71.94862         3.76540
C         23.39487        74.07688         3.33397
C         22.29865        73.34518         3.78806
C         25.96342        65.53339         2.55370
C         25.91345        66.94727         2.53879
C         24.58692        67.60396         2.85523
C         25.76608        69.82370         2.36282
C         24.61404        69.11976         2.81995
C         25.64265        71.27367         2.14700
C         24.52149        71.99809         2.74936
C         25.72080        74.15302         2.46641
C         24.53992        73.41840         2.81330
C         28.35417        61.29747         1.71213
C         28.40529        62.65883         1.99554
C         27.20461        63.39084         2.24863
C         28.40778        65.55735         2.26658
C         27.14870        64.79193         2.33766
C         28.34909        67.05489         2.18882
C         27.04424        67.73046         2.24067
C         28.19025        69.91918         1.81067
C         26.99946        69.16475         2.11286
C         28.16876        71.34745         1.71001
C         26.88895        72.07324         1.78710
C         28.12794        74.21188         1.88600
C         26.90795        73.52528         2.07067
C         30.51404        57.01023         0.40869
C         30.53604        58.43235         0.54795
C         29.41532        59.15690         0.98064
C         30.63627        61.25952         0.77941
C         29.47324        60.56474         1.17728
C         30.91201        62.66564         1.23726
C         29.70398        63.37993         1.84882
C         30.44188        65.57816         0.71081
C         29.67181        64.86848         1.82901
C         30.66871        67.05138         1.02417
C         29.54104        67.79236         1.65836
C         30.50926        69.93944         0.95686
C         29.42268        69.25360         1.46899
C         30.65181        71.39102         1.30345
C         29.32775        72.08729         1.48310
C         30.50306        74.23038         1.18694
C         29.31644        73.52895         1.51520
C         32.88707        52.74725        -0.20319
C         32.87176        54.14794        -0.20288
C         31.67621        54.88465         0.01450
C         33.00745        57.00950         0.19153
C         31.67798        56.28525         0.13448
C         32.92186        58.46504        -0.18807
C         31.73685        59.14482         0.17319
C         32.85768        61.27953        -0.30630
C         31.72982        60.56609         0.19840
C         32.72573        62.74143        -0.50608
C         31.70323        63.49118         0.23220
C         32.79051        65.64192        -0.34264
C         31.69135        64.86705         0.22297
C         32.74780        67.11699        -0.30958
C         31.66678        67.78094         0.21987
C         32.67953        70.02252        -0.41859
C         31.41210        69.24408        -0.05424
C         32.73491        71.50702        -0.21564
C         31.62664        72.18970         0.47981
C         32.77718        74.38678         0.07400
C         31.62412        73.56739         0.61773
C         35.28321        48.46023        -0.36910
C         35.28337        49.85427        -0.52862
C         34.08842        50.60524        -0.34894
C         35.32357        52.71239        -0.66025
C         34.08252        52.00365        -0.41249
C         35.30865        54.10957        -0.68843
C         34.11297        54.86614        -0.46005
C         35.31306        56.99633        -0.86717
C         34.14098        56.26512        -0.45386
C         35.28309        58.45597        -0.98308
C         34.04578        59.16951        -0.66267
C         35.12812        61.36179        -1.33457
C         33.97622        60.59606        -0.78871
C         35.21440        62.82564        -1.15539
C         33.93523        63.53788        -1.00872
C         35.14910        65.69654        -1.20989
C         33.91838        64.98785        -0.80742
C         35.14928        67.18578        -1.12229
C         33.91780        67.89776        -0.69201
C         35.18808        70.03392        -0.77496
C         33.95014        69.27422        -0.58683
C         35.20380        71.48179        -0.56243
C         34.04826        72.19411        -0.25414
C         35.28386        74.27985         0.00706
C         34.07943        73.61130        -0.02088
C         37.70375        44.12823        -0.09570
C         37.68132        45.52263        -0.35188
C         36.48015        46.29680        -0.31445
C         37.67747        48.38577        -0.89399
C         36.47375        47.69576        -0.50574
C         37.71054        49.78464        -1.05876
C         36.51371        50.54948        -0.84292
C         37.77117        52.63413        -1.20680
C         36.54100        51.96190        -0.88592
C         37.84001        54.11080        -1.10126
C         36.56665        54.86165        -0.80524
C         37.68921        56.96264        -1.61772
C         36.48632        56.29696        -1.11500
C         37.69131        58.47126        -1.67002
C         36.43769        59.15233        -1.28919
C         37.70568        61.35524        -1.39933
C         36.43359        60.61214        -1.51843
C         37.68325        62.74184        -1.25486
C         36.43589        63.49549        -1.19892
C         37.60831        65.68986        -1.37599
C         36.44669        64.96350        -1.21219
C         37.66202        67.15220        -1.35399
C         36.45004        67.88072        -0.81015
C         37.59990        70.11114        -1.35221
C         36.36046        69.36656        -1.07815
C         37.63808        71.52959        -0.95033
C         36.47597        72.18338        -0.58002
C         37.73806        74.28110        -0.19100
C         36.52106        73.60126        -0.24590
C         40.14775        39.83248         0.43358
C         40.11960        41.21015         0.11542
C         38.93253        41.96614         0.09472
C         40.12898        44.10321        -0.30743
C         38.91001        43.38753        -0.12046
C         40.12504        45.48218        -0.55464
C         38.90966        46.18836        -0.64775
C         40.20875        48.33827        -1.31604
C         38.87836        47.58268        -1.11751
C         40.18921        49.79955        -1.29960
C         38.95363        50.48235        -1.33467
C         40.16736        52.60228        -1.93208
C         38.93365        51.91055        -1.46292
C         40.21386        54.10425        -2.02277
C         39.00069        54.86909        -1.63771
C         40.16615        57.03450        -2.07400
C         38.97214        56.23072        -1.69670
C         40.21919        58.47685        -1.73475
C         38.97871        59.20912        -1.56498
C         40.21267        61.31509        -1.21544
C         38.93988        60.59283        -1.39722
C         40.24050        62.78000        -1.45768
C         38.96128        63.49558        -1.18154
C         40.09574        65.66092        -1.96440
C         38.90959        64.98038        -1.36033
C         40.09999        67.16995        -1.92698
C         38.83320        67.83964        -1.53652
C         40.14119        69.98866        -0.97775
C         38.87906        69.33608        -1.53313
C         40.19781        71.49195        -1.19013
C         38.90515        72.27297        -1.06111
C         40.21029        74.24510        -0.32322
C         38.97412        73.64578        -0.51568
C         42.66474        35.56843         1.15712
C         42.59387        36.98437         1.19274
C         41.40425        37.68584         0.94234
C         42.55986        39.82929         0.79736
C         41.35755        39.11127         0.72599
C         42.64233        41.21660         0.34021
C         41.40703        41.90747        -0.14628
C         42.47145        44.16680         0.54078
C         41.47449        43.42051        -0.37702
C         42.46086        45.64884         0.37764
C         41.43320        46.20104        -0.57370
C         42.55742        48.52133        -0.34140
C         41.47464        47.65192        -0.90668
C         42.64168        49.88832        -0.89993
C         41.45219        50.49534        -1.29775
C         42.75749        52.67357        -1.60513
C         41.47350        51.87790        -1.80004
C         42.70063        54.16275        -1.64434
C         41.51475        54.81365        -1.92841
C         42.73956        57.02413        -1.91590
C         41.50147        56.27140        -2.13692
C         42.72981        58.42847        -1.80526
C         41.46735        59.11499        -1.66353
C         42.72383        61.30705        -1.59925
C         41.49847        60.55350        -1.33973
C         42.63361        62.65223        -2.24133
C         41.39148        63.42655        -1.78616
C         42.64648        65.63373        -1.82908
C         41.36716        64.89013        -2.08932
C         42.66425        67.11746        -1.60688
C         41.40444        67.90816        -1.80431
C         42.62404        70.01250        -1.34248
C         41.44019        69.33032        -1.38182
C         42.66798        71.42814        -0.94975
C         41.46826        72.15209        -0.83223
C         42.68155        74.17744        -0.22696
C         41.45727        73.54266        -0.48838
C         45.16672        32.76695         1.08605
C         43.93259        33.45480         1.19657
C         45.12141        35.57712         1.64518
C         43.87153        34.85124         1.33224
C         45.16752        37.02859         1.42540
C         43.85308        37.72821         1.43960
C         45.09872        39.88751         0.78221
C         43.82438        39.20694         1.18502
C         45.10213        41.34419         0.80345
C         43.81233        41.99504         0.84714
C         45.03519        44.22435         0.92166
C         43.74763        43.49866         0.97995
C         45.01686        45.70078         0.85373
C         43.71982        46.43496         0.66945
C         45.06646        48.59739         0.19954
C         43.75752        47.89838         0.30600
C         45.06835        49.93731        -0.20451
C         43.86914        50.62316        -0.70601
C         45.10518        52.77900        -0.69901
C         43.89218        51.99001        -0.96743
C         45.16174        54.23238        -1.07260
C         43.93181        54.90964        -1.55720
C         45.22443        57.02126        -1.91066
C         43.94656        56.28977        -1.74333
C         45.22635        58.49220        -1.76712
C         43.99480        59.13633        -1.65929
C         45.28179        61.36105        -1.58522
C         43.98236        60.59530        -1.46390
C         45.25608        62.79705        -1.93472
C         43.95987        63.45222        -2.23591
C         45.18437        65.70790        -1.89761
C         43.94112        64.97213        -2.15349
C         45.16946        67.10924        -1.69860
C         43.94634        67.83104        -1.65926
C         45.18417        70.03828        -1.44301
C         43.89735        69.30577        -1.66277
C         45.15707        71.44330        -0.95256
C         43.90884        72.10173        -0.74499
C         45.14759        74.14314        -0.13550
C         43.91063        73.48555        -0.35711
C         46.38625        33.40414         1.13052
C         47.67743        35.61089         1.27652
C         46.48643        34.80748         1.52058
C         47.65036        37.01096         1.32436
C         46.36387        37.70408         1.35761
C         47.61902        39.92358         1.19313
C         46.39743        39.14510         0.99600
C         47.59428        41.34775         1.15888
C         46.27862        42.07510         1.36962
C         47.47497        44.28766         1.00916
C         46.25306        43.55589         1.03467
C         47.47884        45.69916         0.86438
C         46.28694        46.43304         0.68672
C         47.54554        48.52727         0.39794
C         46.30058        47.85226         0.44924
C         47.54592        49.99413         0.22470
C         46.31586        50.68074        -0.23703
C         47.62935        52.72557        -0.84736
C         46.35966        52.01528        -0.57131
C         47.64664        54.18383        -1.12453
C         46.48695        54.85975        -1.32411
C         47.76774        57.03953        -1.61061
C         46.51781        56.27090        -1.78145
C         47.72222        58.44463        -1.77805
C         46.49832        59.18712        -1.81160
C         47.71587        61.38006        -1.90385
C         46.53197        60.62080        -1.83878
C         47.71986        62.81249        -1.83514
C         46.44724        63.50123        -1.97004
C         47.75159        65.72981        -1.91981
C         46.44254        64.97859        -2.13340
C         47.65481        67.15240        -1.51318
C         46.43739        67.80177        -1.50255
C         47.66387        69.98718        -1.39003
C         46.39988        69.23540        -1.02823
C         47.64067        71.47054        -1.14846
C         46.35939        72.11830        -0.77781
C         47.61940        74.15656        -0.16236
C         46.37206        73.48674        -0.34192
C         48.84494        37.77630         1.22600
C         50.06848        39.92898         1.33106
C         48.87261        39.20755         1.26063
C         50.06183        41.40618         1.60724
C         48.77540        42.07078         1.18023
C         50.05867        44.23492         0.87468
C         48.74901        43.52340         0.92959
C         50.06052        45.70158         1.13711
C         48.74247        46.44792         1.05549
C         50.03509        48.52244         0.65925
C         48.78691        47.87399         0.68345
C         50.14674        49.92264         0.09736
C         48.85341        50.71157         0.16487
C         50.13613        52.87660        -0.31189
C         48.91992        52.05394        -0.50654
C         50.15448        54.19756        -0.71257
C         48.98901        54.80727        -1.49054
C         50.21014        57.02058        -1.37386
C         48.98086        56.33176        -1.44099
C         50.26043        58.45538        -1.57459
C         49.00555        59.14396        -1.96388
C         50.22911        61.41503        -1.71942
C         49.00180        60.68297        -2.04467
C         50.20067        62.79765        -1.53865
C         48.95216        63.52920        -1.68870
C         50.17305        65.66155        -1.33187
C         48.98581        64.96096        -1.61445
C         50.16999        67.11763        -1.20214
C         48.90887        67.87025        -1.27324
C         50.21985        70.03374        -1.45545
C         48.93012        69.24602        -1.27764
C         50.10679        71.48509        -0.98422
C         48.91720        72.14245        -0.81702
C         50.06520        74.23156        -0.12831
C         48.86108        73.53328        -0.37160
C         51.32562        42.14135         1.23243
C         52.54787        44.27657         0.93067
C         51.34748        43.50442         1.05572
C         52.55916        45.68499         0.85089
C         51.31342        46.42966         0.92547
C         52.55600        48.55268         0.98358
C         51.26994        47.81798         0.85382
C         52.57571        50.05590         0.94529
C         51.26685        50.75876         0.69628
C         52.59761        52.92462         0.38538
C         51.27259        52.22564         0.39966
C         52.60119        54.32081        -0.13868
C         51.36567        54.97501        -0.63024
C         52.71539        56.99059        -1.18257
C         51.41575        56.29650        -1.07162
C         52.74587        58.50210        -1.35637
C         51.43701        59.18093        -1.49591
C         52.75025        61.38174        -1.21085
C         51.47916        60.64428        -1.67544
C         52.62398        62.82065        -0.92244
C         51.42172        63.51257        -1.20865
C         52.62879        65.62090        -0.88710
C         51.40656        64.93704        -1.11687
C         52.63057        67.09525        -1.03810
C         51.34098        67.81003        -0.98880
C         52.68034        69.99319        -0.69585
C         51.32816        69.29916        -0.68401
C         52.68759        71.47570        -0.69907
C         51.36186        72.24836        -0.85109
C         52.52286        74.28257        -0.01366
C         51.32369        73.62421        -0.31490
C         53.77776        46.40704         0.71710
C         55.01497        48.54811         0.65543
C         53.82283        47.81797         0.75003
C         55.05761        49.98112         0.58569
C         53.84286        50.74067         0.61227
C         55.08607        52.75482         0.04966
C         53.85873        52.11904         0.33971
C         55.11311        54.12595        -0.46673
C         53.88706        54.91811        -0.52981
C         55.15914        57.00649        -0.57194
C         53.93483        56.26545        -0.75866
C         54.86994        58.38838        -0.00934
C         53.90287        59.24691        -0.78892
C         54.86478        61.34505         0.17292
C         53.85276        60.60831        -0.58144
C         54.87489        62.74381         0.13071
C         53.77469        63.49755        -0.44411
C         55.05111        65.63099        -0.22925
C         53.81098        64.92571        -0.52894
C         55.15579        67.09080        -0.52746
C         53.89970        67.85559        -0.81730
C         55.05221        69.98032         0.00184
C         53.85341        69.30918        -0.48657
C         54.91317        71.39132         0.42313
C         53.78833        72.18083        -0.06175
C         54.96369        74.28819         0.45423
C         53.76241        73.58540         0.11669
C         56.28591        50.67149         0.45727
C         57.55470        52.81276         0.27095
C         56.32564        52.06248         0.21757
C         57.62659        54.19491         0.07122
C         56.45068        54.89215        -0.50312
C         57.65741        57.12598        -0.30680
C         56.35360        56.35490        -0.38329
C         57.44973        58.43007         0.50643
C         56.10821        59.09599         0.50076
C         57.27183        61.31919         1.09710
C         55.98757        60.57672         0.78444
C         57.25402        62.81467         1.19775
C         55.96646        63.53958         0.75142
C         57.24327        65.71455         0.96708
C         56.08412        64.97502         0.41355
C         57.50921        67.10399         0.48029
C         56.36215        67.87055        -0.10812
C         57.43860        70.01827         0.69745
C         56.25213        69.32073         0.21794
C         57.44163        71.43083         0.82629
C         56.17415        72.16396         0.82540
C         57.42320        74.29774         0.74978
C         56.18235        73.63090         0.66897
C         58.77041        54.96057         0.43405
C         59.95345        57.11394         0.67913
C         58.82780        56.36263         0.32546
C         59.92024        58.55396         0.76034
C         58.67514        59.20782         0.72783
C         59.85151        61.46496         0.83597
C         58.57407        60.66897         0.73556
C         59.77669        62.89379         1.22767
C         58.53840        63.53217         1.30234
C         59.76751        65.70591         1.63228
C         58.49798        64.97776         1.52165
C         59.69570        67.19087         1.89669
C         58.69595        67.84780         0.96705
C         59.81571        70.02033         1.35374
C         58.64641        69.33065         0.98923
C         59.84867        71.44430         1.26846
C         58.64565        72.14790         1.01381
C         59.87432        74.27813         1.00518
C         58.64583        73.60036         0.94366
C         61.11491        59.31614         0.95546
C         62.27202        61.46380         1.32327
C         61.11362        60.71734         1.04266
C         62.24971        62.88171         1.45239
C         60.99870        63.60009         1.43086
C         62.23883        65.75019         1.75710
C         60.98200        65.02608         1.61800
C         62.26069        67.15145         1.84956
C         61.02503        67.90635         1.78323
C         62.26379        70.03985         2.06479
C         61.02414        69.27793         1.67798
C         62.30018        71.46486         1.57906
C         61.09527        72.15905         1.36706
C         62.34191        74.26441         1.17472
C         61.10707        73.58650         1.17312
C         63.45031        63.59780         1.61863
C         64.70268        65.70726         1.77115
C         63.47882        65.01322         1.72743
C         64.74773        67.12363         1.78567
C         63.51109        67.86035         1.83042
C         64.75589        69.97127         1.72819
C         63.53707        69.27282         1.81700
C         64.77311        71.40895         1.62299
C         63.53961        72.13924         1.51961
C         64.81148        74.23316         1.27739
C         63.56383        73.56459         1.31409
C         65.96973        67.82962         1.75657
C         67.22073        69.95666         1.66381
C         65.99925        69.24029         1.71357
C         67.24324        71.36305         1.58367
C         66.00318        72.09352         1.53752
C         67.27982        74.19163         1.33220
C         66.02493        73.52519         1.38767
C         68.46756        72.08314         1.52239
C         68.47254        73.47296         1.40587
O         40.55655        65.17438        -3.26996
O         44.21018        46.23958         2.01752
O         58.70904        67.23519        -0.36496
O         50.88123        51.69291         1.72478
O         43.80647        38.68643         2.56291
O         29.52269        65.56796        -0.36239
O         56.58490        58.30207         1.66806
O         56.24480        63.25496         2.15255
O         38.23923        69.89314        -2.69741
O         44.97715        53.83297         0.35033
O         56.44101        60.78569         2.16114
O         40.00565        53.27357        -3.22291
O         47.61369        70.90146        -2.52343
O         45.79177        39.29615        -0.37779
O         42.31232        41.25851        -1.10781
O         57.43436        65.51816         2.38839
O         48.43977        52.00048        -1.89886
O         30.22762        64.17949         2.98562
O         59.19360        61.26604        -0.46742
O         40.91699        60.89748         0.01273
O         52.52037        61.07796        -2.61625
O         40.76497        56.68319        -3.34794
O         35.59010        60.95710        -2.66895
O         39.13587        64.40196        -0.02273
O         52.60426        49.35318         2.22710
O         57.98748        57.45434        -1.60106
O         32.39671        70.93115        -1.55163
O         45.82854        35.11189         2.80760
O         25.93548        71.68236         0.75299
O         42.39150        52.07361        -2.90618
O         45.92829        56.50660        -3.10855
O         39.51201        47.75321        -2.43928
O         55.92038        54.26155        -1.69340
O         49.42273        43.86430        -0.39332
O         44.69403        69.87698        -2.79055
O         44.73946        61.06101        -0.23981
O         56.18135        67.48129        -1.50898
O         47.23579        65.47704        -3.26909
O         32.87319        63.08198        -1.91611
O         55.24055        71.65127         1.83452
O         37.50180        57.68984        -2.89901
O         52.62183        54.04620         1.33215
O         39.57695        72.06633        -2.36271
O         43.52666        42.66414         2.17616
O         52.98430        57.60884        -2.49423
O         49.35976        46.11331         2.35240
O         53.44749        67.57950        -2.18676
O         41.85239        45.01725         1.54473
O         28.62709        66.37309         3.46511
O         42.61629        66.16194        -0.45947
O         48.15106        50.68615         1.41986
O         40.75901        67.73726        -3.10686
O         30.76199        67.43228         2.43023
O         49.10903        59.84545        -3.24347
O         52.26575        72.07006        -1.97926
O         42.70902        48.56841         1.11536
O         41.97353        46.64885        -1.85282
O         43.99806        64.28115        -3.45052
O         35.01140        66.55687        -2.42191
O         37.53669        54.55201         0.28409
O         59.22093        67.40337         3.25294
H         59.89340        67.05643         3.87505
O         50.50968        49.78676        -1.30863
H         49.76788        49.36723        -1.79319
O         42.37387        62.34299        -3.64834
H         42.68776        63.11746        -4.17657
O         46.11165        42.00595         2.83528
H         45.19550        42.33397         3.02818
O         50.52810        70.01910        -2.85645
H         49.78086        70.44158        -3.33365
O         46.34298        69.20255         0.43264
H         47.09696        68.66589         0.75712
O         31.88662        62.43918         2.31162
H         31.71619        63.14422         2.98539
O         31.28448        71.37078         2.66308
H         30.77943        70.72900         3.20923
O         49.22021        54.46801        -2.88681
H         49.07426        53.49471        -2.97183
O         50.90758        69.41656         0.72143
H         51.56870        68.96231         1.28554
O         62.16887        70.15184         3.54089
H         62.94488        70.67130         3.84236
O         32.94588        75.57827         0.84434
H         33.14762        75.32130         1.76720
O         54.06611        58.10060         1.19124
H         54.70154        57.85408         1.90383
O         33.36319        57.03627         1.62749
H         33.41499        56.10544         1.93366
O         50.02942        41.50841         3.10113
H         49.16203        41.15826         3.40223
O         41.97430        43.65724        -1.71618
H         42.24717        42.78849        -2.09605
O         40.00737        69.78397         0.47149
H         40.83707        70.08177         0.90266
O         30.56404        69.21440        -1.24453
H         30.88866        69.92795        -1.84640
O         23.56850        67.12406         1.95986
H         23.80579        67.39812         1.05000
O         36.57144        67.76766         0.65141
H         37.43192        68.15414         0.92157
H         23.38377        75.17482         3.38612
H         25.71648        75.24390         2.61071
H         28.15246        75.30573         2.00268
H         30.51992        75.32790         1.25561
H         32.51118        74.71904        -0.96842
H         35.29620        75.36446         0.19017
H         37.75029        75.33721         0.11719
H         40.25029        75.28214         0.04220
H         42.69234        75.23952         0.05911
H         45.14529        75.19919         0.17234
H         47.60641        75.20796         0.16148
H         50.01834        75.26915         0.23378
H         52.48809        75.34256         0.27774
H         54.94211        75.38781         0.44539
H         57.44736        75.39356         0.65453
H         59.88967        75.37356         0.90357
H         62.36018        75.35636         1.04274
H         64.83318        75.32495         1.14340
H         67.30084        75.28543         1.22395
H         22.59624        69.25145         3.54476
H         21.44211        71.38278         4.14132
H         21.42095        73.87504         4.18380
H         25.02132        64.99041         2.72534
H         24.27133        67.27555         3.88245
H         27.39783        60.76466         1.83064
H         26.26466        62.81965         2.31191
H         29.55905        56.47633         0.53138
H         28.49614        58.61721         1.25284
H         31.95151        52.20025        -0.01243
H         30.72359        54.33925         0.09732
H         34.34521        47.94878        -0.10713
H         33.15186        50.07017        -0.13199
H         36.75745        43.60754         0.11281
H         35.53132        45.79058        -0.08309
H         39.18834        39.30346         0.53751
H         37.97800        41.45593         0.29291
H         41.74213        34.99834         0.96757
H         40.47829        37.10835         0.79848
H         45.13756        31.69346         0.84983
H         42.99951        32.89546         1.03789
H         47.30271        32.86773         0.84493
H         48.61756        35.09813         1.02303
H         49.80531        37.23932         1.19943
H         51.02510        39.38779         1.38954
H         52.27505        41.58903         1.31038
H         53.51147        43.74472         0.94162
H         54.71855        45.84512         0.61563
H         55.96527        47.99989         0.56682
H         57.22813        50.10914         0.53435
H         58.46084        52.27893         0.59805
H         59.60209        54.43824         0.93671
H         60.91370        56.60514         0.86156
H         62.06920        58.78052         1.06635
H         63.23421        60.94105         1.42717
H         64.40322        63.04809         1.61745
H         65.64449        65.13953         1.74657
H         66.91650        67.26979         1.74491
H         68.17011        69.40085         1.67505
H         69.41672        71.52992         1.56257
H         69.43107        74.00882         1.36026
