         294
 CSIRO Nanostructure Databank - Neutral Graphene Oxide Data Set
C          1.19472         2.01469         0.42393
C          1.09017         3.38166         0.69297
C          2.38310         1.30893         0.52527
C          2.27153         4.16535         1.20402
C          1.27758         6.32980         0.33525
C          1.27823         7.76351         0.17585
C          2.31269         5.65324         0.89396
C          2.32915         8.53992         0.57336
C          1.11713        10.76767         0.30844
C          1.12918        12.08801         0.02033
C          2.34839         9.99313         0.40472
C          2.42210        12.77025        -0.37355
C          1.27360        14.96329        -1.04794
C          1.29574        16.27305        -1.33356
C          2.40852        14.31033        -0.27632
C          2.55111        17.06244        -1.02353
C          2.65774        18.40382        -1.71605
C          3.60665         1.96745         1.09378
C          3.57796         3.48255         0.72712
C          4.91501         1.29230         0.70753
C          4.87360         4.16503         1.23319
C          3.54166         6.35490         1.45770
C          3.53095         7.93864         1.30632
C          4.83355         5.66865         0.99305
C          4.78109         8.55075         0.67771
C          3.56523        10.66471         0.40833
C          3.60455        12.18263         0.43195
C          4.78040         9.90088         0.44735
C          4.92128        12.79743        -0.02269
C          3.76464        14.87197        -0.68487
C          3.72462        16.16111        -1.46448
C          4.96083        14.16487        -0.47683
C          5.06462        16.88737        -1.54920
C          3.84332        19.02487        -1.82235
C          5.07940        18.38142        -1.23108
C          6.05999         1.97824         0.51180
C          6.01868         3.46573         0.49833
C          7.43164         1.31350         0.42041
C          7.25341         4.23035         0.20421
C          5.98855         6.33288         0.77289
C          6.00761         7.76983         0.29385
C          7.31412         5.60186         0.84231
C          7.28621         8.50236         0.69313
C          6.10237        10.57417         0.07816
C          6.10545        12.08582         0.13949
C          7.19782         9.97786         0.98625
C          7.37341        12.73376         0.06878
C          6.26208        14.74718        -0.77032
C          6.32335        16.12064        -1.33851
C          7.43279        14.08297        -0.38156
C          7.60026        16.89677        -1.24454
C          6.39532        19.05092        -1.53142
C          7.58747        18.38951        -1.30585
C          8.43626         2.06541        -0.47990
C          8.52161         3.54038        -0.13907
C          9.80318         1.42035        -0.51276
C          9.64864         4.26735        -0.37488
C          8.41023         6.42116         0.20873
C          8.45729         7.84182         0.63033
C          9.60561         5.75582        -0.36774
C          9.79632         8.41055         1.02613
C          8.51642        10.68680         0.81417
C          8.59080        12.01585         0.45031
C          9.72041         9.93301         1.22920
C          9.84547        12.77750         0.60714
C          8.82548        14.65086        -0.63952
C          8.83365        16.17518        -0.82664
C          9.87357        14.11673         0.31622
C          9.93270        17.02983        -0.28553
C          8.86002        19.03627        -1.32401
C         10.05196        18.41204        -0.86173
C         10.96048         2.13343        -0.77085
C         10.84943         3.60666        -0.93712
C         12.22876         1.51770        -0.97227
C         12.15541         4.44756        -1.11217
C         10.86517         6.57249        -0.52426
C         10.89647         7.98586         0.02928
C         12.12984         5.86748        -0.75149
C         12.23754         8.73210         0.14132
C         11.00242        10.66802         1.37598
C         11.06406        12.13049         1.12502
C         12.25445         9.86761         1.16635
C         12.26257        12.78312         1.25480
C         11.02832        14.93301         0.89114
C         11.08397        16.38912         0.40624
C         12.37469        14.20088         0.70665
C         12.42315        17.03787         0.06202
C         11.22585        19.12136        -0.66067
C         12.35070        18.57514         0.18780
C         13.41781         2.25819        -1.17007
C         13.40271         3.67529        -1.16723
C         14.68024         1.53161        -1.27475
C         14.67404         4.41217        -1.16107
C         13.40194         6.59431        -0.55577
C         13.44380         7.79034         0.38834
C         14.68592         5.84587        -0.71784
C         14.73838         8.60318         0.29095
C         13.55711        10.57633         1.24277
C         13.54014        12.05655         1.53908
C         14.75991         9.92346         0.66397
C         14.83886        12.81140         1.57739
C         13.53637        15.02508         1.26895
C         13.58302        16.46533         0.85844
C         14.87154        14.36242         1.69971
C         14.89116        17.12266         0.64064
C         13.68431        19.15330        -0.18197
C         14.88786        18.48994         0.13187
C         15.90428         2.15002        -1.25756
C         15.94434         3.63348        -1.16776
C         17.18877         1.47905        -1.39266
C         17.22419         4.15835        -0.53726
C         15.92689         6.42441        -0.10031
C         15.98405         7.89609         0.02218
C         17.22954         5.65869        -0.22794
C         17.21504         8.52648         0.08906
C         16.07907        10.61311         0.96875
C         16.01591        12.15725         0.83919
C         17.22393        10.03942         0.12371
C         17.35351        12.77061         1.27054
C         16.09386        15.00668         1.04302
C         16.08707        16.37129         0.71754
C         17.37098        14.27564         1.20488
C         17.39763        17.06364         0.35230
C         16.11308        19.16573         0.00723
C         17.35405        18.58725         0.62333
C         18.37889         2.16394        -1.46604
C         18.37856         3.68323        -1.43302
C         19.66394         1.52250        -1.68931
C         19.66961         4.29953        -0.93051
C         18.44119         6.46738        -0.45358
C         18.43669         7.82904        -0.23206
C         19.64478         5.79882        -1.01728
C         19.77460         8.54099        -0.11797
C         18.56767        10.66943         0.42255
C         18.66668        11.95218         1.23361
C         19.69160        10.05217        -0.00950
C         19.90504        12.77900         0.92754
C         18.69593        14.91420         0.76525
C         18.61432        16.42015         1.05783
C         19.90019        14.22074         1.45543
C         19.90873        17.14282         0.73821
C         18.61828        19.25132         0.04317
C         19.89660        18.51015         0.38686
C         20.85310         2.17710        -1.60366
C         20.95258         3.57696        -1.12690
C         22.18008         4.39782        -1.29634
C         20.91006         6.55451        -1.28208
C         20.89306         8.09639        -1.10718
C         22.16641         5.74624        -1.32537
C         22.16985         8.70973        -0.55958
C         20.94846        10.84651        -0.32101
C         20.98897        12.21684         0.32524
C         22.18239         9.98925        -0.15978
C         22.14227        13.03328        -0.02737
C         21.27042        14.99237         1.27937
C         21.13668        16.48443         0.94550
C         22.22765        14.33574         0.30465
C         22.32943        17.22122         0.86856
C         21.10306        19.21390         0.28078
C         22.31454        18.57757         0.54892
O         10.54932         7.79352        -1.35659
O         20.30913         3.73337         0.22531
O         14.30459        12.25186         2.80356
O         17.30169        13.53951         2.48415
O         11.22300         4.09865        -2.22156
O          6.31599        10.28360        -1.25938
O         15.50886         4.26895        -2.41230
O          6.23049         4.05650        -0.83877
O         13.03896         9.73948         2.38068
O         13.17510        16.07272         2.20570
O         10.08393        17.14262         1.18603
O         21.99594        14.86903         2.48420
O         14.20830         6.75331        -1.77509
O         10.21953        10.30694         2.57066
O          3.50064         6.03337         2.84708
O         16.53984         5.81457         1.07523
O          8.50217         6.24052        -1.23770
O          5.78687        16.38939        -2.70434
O         19.99649         6.21327        -2.39129
O          8.60232        16.45271        -2.24352
O         18.66340        20.59643         0.51717
H         18.36174        20.56231         1.45402
O          9.26491        14.07279        -1.90696
H          8.88171        14.63969        -2.62065
O          6.77261        10.19556         2.35135
H          7.47829         9.88065         2.95442
O          3.51156         3.59371        -0.70642
H          4.40221         3.77702        -1.08170
O         18.22400         4.17171        -2.77537
H         17.29652         4.03594        -3.07349
O          2.20146        14.68695         1.11778
H          2.32066        15.67383         1.16088
O         10.18319         7.79112         2.26971
H         10.35896         8.51479         2.92106
O         17.57774        16.92090        -1.08557
H         16.76360        17.24122        -1.52980
O         19.67002        14.20206         2.87988
H         20.59407        14.33728         3.25899
O         18.86669        11.47905         2.59649
H         18.93374        12.29566         3.14998
O         16.95815        10.40262        -1.28088
H         17.70552        10.06949        -1.82398
O         20.26976         8.13729         1.19646
H         19.68950         8.53704         1.88016
O          3.50466        12.51788         1.83759
H          3.08436        13.40972         1.91845
O          3.52595         1.82419         2.55074
H          4.25502         2.40218         2.91221
O         18.37518        16.53059         2.48307
H         18.82716        15.76116         2.93161
O          4.96546        18.43107         0.23032
H          4.97788        19.37285         0.50120
O          3.37231        15.74378        -2.81017
H          4.21684        15.50599        -3.26332
O         18.86563        14.64978        -0.64015
H         18.39815        15.35492        -1.15225
O         12.64632        14.06266        -0.71664
H         11.92153        13.53743        -1.12408
O          2.65203        12.48825        -1.77379
H          2.74927        11.51818        -1.88170
O          7.99483         1.27998         1.73571
H          7.35667         0.85282         2.34285
O         20.84194        11.15521        -1.74904
H         20.20477        11.89326        -1.84990
O          5.05392         3.96084         2.65865
H          4.45941         4.68267         3.06601
O         13.35771         7.20312         1.69769
H         13.41150         7.93430         2.36196
O         16.36254        10.30541         2.34288
H         15.69203        10.75743         2.90641
O         17.28700        18.89204         2.03439
H         17.65747        18.12293         2.53909
O          5.96925         7.67176        -1.15714
H          6.86458         7.44058        -1.49064
O          7.64780         5.40894         2.23758
H          6.86808         4.99221         2.67716
O         10.79609        14.94821         2.31447
H         10.25402        15.74240         2.52074
O         15.04437        14.67531         3.09157
H         14.61091        13.96354         3.61534
O          2.05578         4.02394         2.62258
H          2.37042         3.11856         2.88722
O         12.09567        18.94712         1.56688
H         11.28945        18.46220         1.86182
O         20.62416         8.66136        -2.39745
H         20.17490         7.96638        -2.93322
O          3.44384         8.47823         2.63821
H          3.39972         7.67927         3.23725
O         12.66436        16.76063        -1.33683
H         12.74741        15.77920        -1.44257
O          2.63244        17.26470         0.41556
H          2.01355        17.98393         0.65849
O         12.45851         9.41296        -1.10991
H         12.01912         8.87521        -1.81429
O         15.75050        12.57393        -0.51952
H         16.20340        11.94764        -1.14063
O          7.90540         1.95617        -1.82872
H          8.34117         2.62911        -2.39351
O         17.38782         3.45122         0.70868
H         17.07929         4.03972         1.43490
H          0.29006         1.47884         0.09692
H          0.08891         3.83596         0.74093
H          2.41257         0.23992         0.26647
H          0.39160         5.78064        -0.02077
H          0.39968         8.22579        -0.29988
H          0.16349        10.26107         0.51968
H          0.18397        12.64827        -0.03515
H          0.38881        14.35685        -1.29168
H          0.45175        16.76108        -1.84535
H          1.74677        18.85943        -2.13596
H          4.93284         0.18983         0.73864
H          3.92691        20.00193        -2.32318
H          7.31056         0.26256         0.03182
H          6.40297        20.14438        -1.66430
H          9.84620         0.31965        -0.52773
H          8.89830        20.10739        -1.57383
H         12.29156         0.42179        -0.91093
H         11.27118        20.17787        -0.96782
H         14.62432         0.43465        -1.34543
H         13.73423        20.18088        -0.57311
H         17.18899         0.37931        -1.45894
H         16.12808        20.20097        -0.36813
H         19.65916         0.45589        -1.96456
H         18.52768        19.28945        -1.07778
H         21.78694         1.64195        -1.83526
H         23.14011         3.86607        -1.39091
H         23.11947         6.28452        -1.43830
H         23.07506         8.09196        -0.45935
H         23.09821        10.43895         0.25256
H         22.91478        12.57386        -0.66214
H         23.11481        14.91673         0.01224
H         23.28316        16.72450         1.09294
H         21.07569        20.27995         0.01632
H         23.25641        19.14202         0.50064
