         324
 CSIRO Nanostructure Databank - Neutral Graphene Oxide Data Set
C         30.47841        57.15851         1.05026
C         30.45536        58.57039         0.96791
C         29.25760        59.31074         1.18198
C         30.45006        61.40753         0.91067
C         29.26721        60.70284         1.14470
C         32.89280        52.87287         0.69088
C         32.90272        54.28677         0.70807
C         31.73029        55.01878         1.00062
C         32.87904        57.16100         0.58787
C         31.68393        56.44297         0.89350
C         32.86900        58.56082         0.43928
C         31.66335        59.27986         0.67670
C         32.88622        61.40439         0.49236
C         31.66787        60.71668         0.67476
C         35.13980        48.56906         0.31310
C         35.20056        49.96958         0.23783
C         34.01600        50.72676         0.38751
C         35.26533        52.81307        -0.03338
C         34.04686        52.13078         0.36851
C         35.25856        54.25904        -0.05968
C         34.12352        54.96663         0.36374
C         35.18823        57.12883        -0.30611
C         34.20383        56.44945         0.60053
C         35.21905        58.55738        -0.33491
C         34.08566        59.27372         0.09608
C         35.30885        61.42178         0.13212
C         34.10210        60.71938         0.21306
C         37.64727        44.18948         0.33200
C         37.57316        45.59657         0.41708
C         36.37927        46.32061         0.43669
C         37.66253        48.59473         0.33840
C         36.33163        47.78458         0.53618
C         37.63517        49.96762        -0.14747
C         36.44305        50.67524        -0.08809
C         37.60849        52.76525        -0.96122
C         36.40542        52.09084        -0.37760
C         37.60419        54.27706        -1.10807
C         36.36190        54.96119        -0.66073
C         37.96969        57.27784        -1.19571
C         36.10654        56.31014        -0.97987
C         37.78029        58.54447        -0.50760
C         36.47856        59.29461        -0.65105
C         37.84153        61.38741         0.04961
C         36.54542        60.77227        -0.28326
C         40.33886        40.03410        -0.43828
C         40.28812        41.54733        -0.57258
C         38.97797        42.16950        -0.16633
C         40.14510        44.24467         0.43064
C         38.90088        43.50496         0.17687
C         40.11233        45.61010         0.55767
C         38.86030        46.32713         0.24998
C         40.14631        48.59171         0.19910
C         38.89352        47.80095         0.07791
C         40.14632        49.88769        -0.20882
C         38.89630        50.46677        -0.84434
C         40.21605        52.77955        -0.93274
C         38.92473        52.00774        -1.04921
C         40.25881        54.21049        -1.10121
C         38.99182        55.00329        -1.29474
C         40.32351        57.16093        -0.76873
C         39.07367        56.46919        -1.01646
C         40.31003        58.50726        -0.42618
C         39.06698        59.21995        -0.07633
C         40.27451        61.38362         0.28941
C         39.05035        60.70503         0.07853
C         42.79203        35.72716        -0.46592
C         42.75530        37.23197        -0.32077
C         41.55821        37.89077        -0.30911
C         42.67483        40.02444         0.45611
C         41.46582        39.33319        -0.13930
C         42.78022        41.47268        -0.05180
C         41.47909        42.22490         0.08101
C         42.53280        44.20264         1.28020
C         41.39838        43.49868         0.54835
C         42.61117        45.68415         0.87555
C         41.29929        46.40749         0.93357
C         42.62869        48.59255         0.60723
C         41.35142        47.91359         0.70124
C         42.71136        49.89921        -0.02335
C         41.41696        50.60434        -0.43667
C         42.65987        52.73201        -0.57918
C         41.39997        52.07719        -0.59970
C         42.69454        54.09420        -0.99398
C         41.50578        54.89256        -1.11166
C         42.82013        57.20890        -0.95876
C         41.54321        56.45408        -1.37293
C         42.80719        58.65512        -0.62680
C         41.51916        59.36177        -0.45670
C         42.72397        61.34956         0.44415
C         41.52612        60.72313         0.15859
C         45.32501        33.33046        -2.00738
C         44.11609        33.90042        -1.55611
C         45.28664        35.94836        -0.96581
C         44.08687        35.18906        -1.03384
C         45.28376        37.30083        -0.48161
C         44.01568        37.95988        -0.15672
C         45.22287        40.04298         0.38931
C         43.97602        39.28952         0.19560
C         45.18900        41.51885         0.48891
C         43.97198        42.16620         0.55264
C         45.15914        44.32410         1.15747
C         43.88148        43.51422         1.12673
C         45.15235        45.79319         1.22092
C         43.87238        46.47878         0.97706
C         45.14735        48.68062         1.02745
C         43.82140        47.97887         1.27630
C         45.15724        50.03595         0.51637
C         43.94596        50.69129         0.14916
C         45.14154        52.78460        -0.20406
C         43.91081        52.05534        -0.24022
C         45.16784        54.14973        -0.64250
C         44.01234        54.60631        -1.24404
C         45.31703        57.29498        -0.83279
C         44.05597        56.76698        -1.31311
C         45.27118        58.68532        -0.43199
C         44.06249        59.31285        -0.23326
C         45.27033        61.44280         0.21287
C         44.03895        60.62175         0.52084
C         46.50787        34.03859        -1.92040
C         47.73088        36.09946        -1.31131
C         46.51897        35.36426        -1.40269
C         47.73919        37.41931        -0.84735
C         46.49009        38.00735        -0.45404
C         47.65955        40.26404        -0.43821
C         46.52680        39.38880         0.05160
C         47.66366        41.64108         0.17812
C         46.44212        42.23010         0.51220
C         47.64151        44.50253         0.57468
C         46.36442        43.68999         0.57389
C         47.61437        45.87090         1.10758
C         46.33534        46.51940         1.27618
C         47.56437        48.58184         1.79506
C         46.30405        47.97356         1.38993
C         47.69788        50.02670        -0.08174
C         46.38874        50.71709         0.22010
C         47.66275        52.78076        -0.34317
C         46.37548        52.08281        -0.05614
C         47.66490        54.28615        -0.44156
C         46.35468        55.02304        -0.24223
C         47.69650        57.19519        -0.28131
C         46.44585        56.51229        -0.61168
C         47.68255        58.63655        -0.10976
C         46.50976        59.35492        -0.12620
C         47.74254        61.49460        -0.15548
C         46.47981        60.81406         0.01994
C         48.96446        38.17314        -0.70172
C         50.16630        40.29213        -0.23386
C         48.98334        39.53552        -0.40710
C         50.15233        41.68276         0.03894
C         48.88758        42.38494         0.21390
C         50.10679        44.50299         0.67794
C         48.90097        43.76189         0.51270
C         50.07265        45.88566         0.96662
C         48.82271        46.57488         1.18669
C         50.06039        48.75979         1.74184
C         48.79177        47.96143         1.57372
C         50.12275        50.08148         0.92371
C         48.94050        50.75034         0.38763
C         50.13472        52.92282         0.28535
C         48.92650        52.09724         0.07891
C         50.16870        54.27686        -0.43905
C         48.91497        55.02081         0.05114
C         50.16903        57.22856         0.03127
C         48.91108        56.51473        -0.17247
C         50.17963        58.60083         0.19957
C         48.90105        59.35898         0.40023
C         50.20005        61.42667        -0.28348
C         48.94526        60.80134        -0.07344
C         51.34908        42.41814         0.17997
C         52.56247        44.52504         0.59511
C         51.36227        43.79973         0.48880
C         52.57756        45.90688         0.90238
C         51.31413        46.62338         1.12679
C         52.60554        48.67567         1.79441
C         51.31648        47.95176         1.49211
C         52.59519        50.11849         1.32741
C         51.34599        50.74851         0.94821
C         52.69935        52.86556         0.53122
C         51.40163        52.19726         0.67786
C         52.73972        54.29506         0.17826
C         51.46674        55.05086        -0.21270
C         52.65443        57.17230         0.21318
C         51.43330        56.49618         0.04063
C         52.69450        58.60539         0.20836
C         51.43532        59.37217         0.49832
C         52.65124        61.39238        -0.37012
C         51.42781        60.76188        -0.11493
C         53.79232        46.59628         0.96282
C         55.04435        48.67047         1.34544
C         53.86323        47.97410         1.32082
C         55.06634        50.11385         1.78688
C         53.79375        50.80038         1.31095
C         55.10159        52.89967         1.03470
C         53.86293        52.20063         0.93159
C         55.08392        54.36023         1.06001
C         53.89249        55.07951         0.61763
C         55.15160        57.18157         0.37873
C         53.90120        56.45758         0.41479
C         55.14477        58.56707         0.05993
C         53.89558        59.28514         0.03990
C         55.11491        61.35787        -0.49013
C         53.89971        60.71349        -0.24024
C         56.32571        50.82274         1.37055
C         57.58873        52.90964         0.94274
C         56.35231        52.19812         1.15248
C         57.65050        54.29564         0.74545
C         56.43037        55.10533         0.94664
C         57.59904        57.12927         0.13167
C         56.38777        56.49018         0.46293
C         57.59219        58.52067        -0.18182
C         56.36413        59.24366        -0.18514
C         57.57534        61.30194        -0.74595
C         56.36023        60.65801        -0.47197
C         58.82860        54.98091         0.37493
C         60.03144        57.06094        -0.19479
C         58.84113        56.38122         0.11975
C         60.04334        58.45347        -0.47874
C         58.81494        59.18936        -0.47249
C         60.03823        61.23432        -1.04277
C         58.80745        60.59079        -0.75640
C         61.24620        59.14297        -0.77538
C         61.23139        60.51111        -1.04994
O         38.14103        54.65896        -2.40949
O         38.88948        46.95733        -1.11622
O         47.75899        49.08958        -0.86177
O         52.43313        54.63470        -1.24718
O         38.23266        58.50245         0.89377
O         37.13860        48.35297         1.65521
O         46.81229        44.34524        -0.64993
O         38.10094        52.23069        -2.23902
O         47.70534        53.49102        -1.63804
O         42.24334        49.93050        -1.44318
O         44.12813        55.65375        -2.15002
O         36.89548        56.88151        -1.99215
O         50.57024        52.96544         1.67007
O         42.16579        59.40072        -1.78420
O         36.45516        60.26087        -1.71593
O         43.33949        46.01344        -0.33886
O         41.10660        47.27872         2.08811
O         46.13628        39.50901         1.44524
O         44.68204        43.64103         2.37044
O         55.77469        54.92220         2.23183
O         47.35549        40.48709        -1.85663
H         48.03228        41.09936        -2.21560
O         48.91625        54.90815         1.49835
H         48.02795        55.18636         1.82305
O         41.66962        35.25397        -1.21708
H         41.74985        35.59293        -2.13199
O         52.69741        48.73508         3.27805
H         52.72399        47.80887         3.60265
O         43.05103        41.35800        -1.48963
H         43.37969        42.22479        -1.81136
O         55.06578        50.14509         3.25375
H         54.22624        49.71008         3.54691
O         34.73045        56.60898         1.98429
H         34.07824        56.19205         2.58722
O         50.05674        54.06259        -1.84924
H         50.97012        54.05005        -2.21921
O         44.15892        60.23423         1.95624
H         45.06300        59.87396         2.08254
O         51.45991        59.58245         1.95678
H         50.51848        59.63773         2.25648
O         50.05019        49.23618         3.13240
H         50.98222        49.43948         3.39634
O         46.20063        55.10870         1.22797
H         45.38204        55.61233         1.42478
O         42.49062        40.10978         1.89069
H         42.53151        39.20323         2.25944
O         38.88325        49.85958        -2.15896
H         38.38507        50.47042        -2.75217
O         48.71884        59.44672         1.87595
H         48.02084        60.11787         2.03868
O         43.63105        48.08356         2.72758
H         42.70530        47.78312         2.91547
O         47.49810        49.76118         2.46246
H         48.38524        49.94354         2.86570
O         42.16770        44.18958         2.67685
H         42.98840        44.00173         3.19021
O         41.39399        56.59856        -2.80238
H         42.23547        56.31290        -3.21942
O         40.39845        41.77803        -2.02002
H         41.30120        41.46489        -2.27263
H         29.54666        56.61322         1.26181
H         28.32282        58.77004         1.38798
H         30.44660        62.50683         0.90947
H         28.33329        61.25620         1.31715
H         31.96750        52.33624         0.94860
H         30.80632        54.47260         1.24023
H         32.89748        62.50321         0.54992
H         34.16220        48.06833         0.25517
H         33.07477        50.21066         0.62657
H         35.33766        62.48534         0.41354
H         36.71798        43.60033         0.30935
H         35.42207        45.78446         0.34694
H         37.84299        62.46843         0.25979
H         39.46325        39.48909        -0.82887
H         38.05382        41.59769        -0.34323
H         40.25486        62.45477         0.54009
H         42.67795        35.29104         0.56929
H         40.63487        37.32308        -0.50479
H         42.69879        62.37467         0.84603
H         45.32184        32.31021        -2.41593
H         43.18252        33.32264        -1.61076
H         45.22151        62.53927         0.29087
H         47.45276        33.58818        -2.25704
H         48.67211        35.61995        -1.61947
H         47.74366        62.57444        -0.36642
H         49.91768        37.63642        -0.83032
H         51.13888        39.77916        -0.29761
H         50.20842        62.48305        -0.59709
H         52.31064        41.90012         0.04277
H         53.52122        44.00986         0.43345
H         52.65337        62.43388        -0.72855
H         54.72566        46.06521         0.72300
H         55.98598        48.16904         1.07386
H         55.11635        62.43211        -0.72979
H         57.27330        50.26636         1.43533
H         58.51697        52.32164         0.88432
H         57.57956        62.38050        -0.96457
H         59.76739        54.41558         0.27517
H         60.98069        56.50462        -0.21419
H         60.04555        62.31180        -1.26146
H         62.19632        58.58973        -0.78544
H         62.17527        61.02740        -1.27544
