         661
 CSIRO Nanostructure Databank - Neutral Graphene Oxide Data Set
C          5.89859        31.61191        -0.69536
C          5.90223        32.97741        -0.60846
C          8.34211        27.31592        -0.88375
C          8.34280        28.72741        -0.95779
C          7.13192        29.46405        -0.86249
C          8.36497        31.58157        -0.83087
C          7.12261        30.86164        -0.80419
C          8.36673        32.99195        -0.73323
C          7.13252        33.72329        -0.61878
C          8.37696        35.85124        -0.52023
C          7.15971        35.11772        -0.51220
C          8.39302        37.24538        -0.32569
C         10.75357        23.12242        -0.19507
C         10.76764        24.47932        -0.47101
C          9.54637        25.20492        -0.63540
C         10.81726        27.23271        -1.35428
C          9.53440        26.56627        -0.91756
C         10.82670        28.72422        -1.13167
C          9.59658        29.43415        -1.03361
C         10.82745        31.56276        -0.99359
C          9.59963        30.85927        -0.95122
C         10.82446        32.98978        -0.88646
C          9.60225        33.70523        -0.74288
C         10.86596        35.80672        -0.61621
C          9.62946        35.12573        -0.65786
C         10.88808        37.31411        -0.72404
C          9.59406        37.99210        -0.31394
C         10.84198        40.11673        -0.08113
C          9.62048        39.36067        -0.06307
C         10.82563        41.54132        -0.06580
C         13.16397        18.85199         0.26773
C         13.09989        20.27069         0.85040
C         11.91320        21.04584         0.36161
C         13.21515        23.13140         0.17256
C         11.95421        22.39927         0.11992
C         13.25151        24.51393        -0.16334
C         12.03471        25.20456        -0.50080
C         13.30121        27.27735        -0.84358
C         12.06307        26.55920        -0.82009
C         13.31964        28.67912        -1.13176
C         12.05031        29.39923        -1.16998
C         13.27265        31.52267        -1.28654
C         12.06815        30.83913        -1.13232
C         13.25885        32.97558        -1.26864
C         12.04677        33.70233        -0.87667
C         13.37532        35.74961        -0.17444
C         12.08369        35.09304        -0.67067
C         13.36765        37.25446        -0.38844
C         12.08643        37.93801         0.02204
C         13.29561        40.12782        -0.35406
C         12.08080        39.43063        -0.17190
C         13.33636        41.58704         0.02658
C         12.00236        42.29660        -0.08072
C         13.20157        44.44666        -0.03654
C         11.99881        43.70354        -0.00728
C         13.21508        45.85299         0.12730
C         15.72668        14.64479         1.03058
C         15.68206        16.05386         0.91429
C         14.45427        16.75601         0.74075
C         15.62860        18.88915         0.91421
C         14.43657        18.13825         0.67185
C         15.58935        20.31942         0.93192
C         14.40874        21.01173         0.70720
C         15.64172        23.15187         0.46778
C         14.41324        22.44228         0.48261
C         15.68773        24.51524         0.14953
C         14.49222        25.21246        -0.20212
C         15.76168        27.30230        -0.73177
C         14.52898        26.60249        -0.58847
C         15.78578        28.68533        -1.04097
C         14.54463        29.36006        -1.24333
C         15.81606        31.55499        -1.42944
C         14.52882        30.79694        -1.70491
C         15.79420        32.92407        -1.39884
C         14.53990        33.71924        -1.35988
C         15.78046        35.90395        -1.20003
C         14.70304        35.02675        -0.58677
C         15.72401        37.30055        -1.09319
C         14.48707        37.98574        -0.77063
C         15.63288        40.23054        -1.17453
C         14.46067        39.44681        -0.71012
C         15.69170        41.70513        -0.97116
C         14.48076        42.38176        -0.55191
C         15.62074        44.57555        -0.65292
C         14.42918        43.75055        -0.39917
C         15.71227        45.85442         0.15092
C         14.40324        46.61354         0.14934
C         15.61442        48.75200         0.39851
C         14.41589        47.99139         0.39708
C         15.65087        50.05472         0.89244
C         18.26163        10.42243         1.30285
C         18.21043        11.80178         1.10642
C         16.99500        12.52772         1.26235
C         18.19072        14.63991         0.93674
C         16.94717        13.92247         1.08817
C         18.15279        16.09845         0.77632
C         16.89148        16.81768         0.92138
C         18.13246        18.96086         1.25527
C         16.88599        18.22025         1.01714
C         18.10746        20.39151         1.49618
C         16.76966        21.10869         1.45848
C         18.04074        23.26356         1.18244
C         16.93680        22.38823         0.62241
C         18.10636        24.63553         0.64559
C         16.95663        25.23103         0.19241
C         18.31560        27.30067        -0.48742
C         17.01688        26.56144        -0.46570
C         18.38369        28.70990        -1.09193
C         17.04296        29.43975        -1.12601
C         18.41329        31.49353        -1.57976
C         17.06039        30.79872        -1.36730
C         18.34296        33.02246        -1.62128
C         17.01195        33.73633        -1.56295
C         18.23440        35.89317        -1.75701
C         16.98154        35.19738        -1.41593
C         18.21556        37.39674        -1.63317
C         17.01333        38.06360        -0.98468
C         18.21959        40.24439        -1.52062
C         16.91254        39.50010        -1.46167
C         18.19230        41.74690        -1.36027
C         16.88152        42.40039        -1.11353
C         18.17667        44.54709        -0.62103
C         16.91388        43.86668        -0.97187
C         18.14679        45.97341        -0.36805
C         16.94890        46.65245        -0.17705
C         18.11317        48.84802         0.13608
C         16.83867        48.16261        -0.27562
C         18.10386        50.11958         0.63918
C         16.86778        50.79634         1.01358
C         18.13020        52.82190         1.76615
C         16.92190        52.07912         1.57507
C         18.16570        54.15247         2.13435
C         20.96533         6.28192         1.61799
C         20.82700         7.60484         1.13890
C         19.64818         8.29271         1.37688
C         20.67197        10.42601         0.38823
C         19.41304         9.64249         0.88066
C         20.62078        11.88138         0.49981
C         19.43305        12.52987         0.77364
C         20.66073        14.70819         0.83710
C         19.40778        13.97928         0.83756
C         20.66644        16.12688         1.36990
C         19.43049        16.88084         0.94223
C         20.61599        18.96723         1.74621
C         19.34265        18.29401         1.30262
C         20.57402        20.46567         1.57965
C         19.28830        21.11573         1.67293
C         20.52929        23.42605         2.07615
C         19.25225        22.61110         1.78237
C         20.61277        24.75971         1.30658
C         19.32982        25.42378         0.93821
C         20.65249        27.64548         0.69391
C         19.36137        26.85277         0.50595
C         20.70019        28.91177        -0.11759
C         19.53465        29.51396        -0.51809
C         20.77119        31.69841        -0.66020
C         19.43606        31.00965        -0.53647
C         20.72705        33.20214        -0.59667
C         19.53751        33.82645        -1.29499
C         20.72956        35.96599        -1.32559
C         19.51631        35.18442        -1.50450
C         20.71013        37.35056        -1.35696
C         19.49013        38.12379        -1.40554
C         20.73089        40.25151        -0.87421
C         19.46485        39.49337        -1.24565
C         20.69497        41.76142        -1.03909
C         19.43188        42.46069        -0.97218
C         20.65600        44.48498        -0.16331
C         19.38275        43.83725        -0.66088
C         20.62859        46.00265        -0.23262
C         19.42862        46.68135        -0.33257
C         20.68109        48.84358         0.04771
C         19.38112        48.15816        -0.23797
C         20.64632        50.04482         0.92259
C         19.35802        50.72892         1.16116
C         20.67524        52.76713         2.08973
C         19.44826        52.22532         1.33649
C         20.68590        54.14403         2.26504
C         19.41716        54.87431         2.16924
C         20.65317        56.98780         1.98722
C         19.42561        56.25227         2.06938
C         20.65323        58.31209         1.56764
C         23.55269         3.62428         2.10930
C         22.30765         4.26103         2.05488
C         23.37846         6.27781         1.13458
C         22.19566         5.58514         1.57714
C         23.29876         7.60826         0.64435
C         21.95545         8.22409         0.31902
C         23.14102        10.46366         0.23635
C         21.98417         9.74386         0.39469
C         23.14525        11.91992         0.23124
C         21.83729        12.65589         0.04224
C         23.08970        14.80893         0.53555
C         21.85002        14.07216         0.56769
C         23.09263        16.23287         0.64225
C         21.88556        16.93696         1.00016
C         23.01545        19.12409         0.89389
C         21.85461        18.31860         1.14539
C         23.02027        20.49968         1.15668
C         21.77580        21.16222         1.51590
C         23.11918        23.32334         1.88473
C         21.81593        22.58878         1.93563
C         23.02378        24.87146         1.94156
C         21.81284        25.44629         1.20646
C         23.12286        27.52307         0.61984
C         21.91152        26.81523         0.72913
C         23.15200        28.92400         0.19622
C         21.96180        29.61239        -0.10506
C         23.24045        31.67001        -0.64246
C         21.97042        31.00981        -0.48992
C         23.23202        33.06347        -1.15371
C         22.00599        33.87965        -1.00624
C         23.25925        35.98587        -1.38723
C         21.98991        35.22832        -1.23256
C         23.24136        37.41408        -0.93182
C         21.94945        38.12386        -1.09522
C         23.23269        40.31332        -1.56589
C         21.90134        39.55308        -1.59956
C         23.19996        41.80618        -1.32911
C         21.89301        42.45334        -1.03735
C         23.19643        44.49756        -0.36267
C         21.88649        43.95771        -0.94482
C         23.19709        45.96357        -0.02783
C         21.90161        46.70344        -0.09549
C         23.18053        48.84825         0.04098
C         21.92666        48.06129         0.06815
C         23.15143        50.27291         0.50759
C         21.95366        50.70376         1.30126
C         23.28799        52.65042         2.47515
C         21.94331        51.98140         2.10928
C         23.19604        54.19569         2.68457
C         21.90849        54.91929         2.47390
C         23.11190        57.15724         2.38947
C         21.89550        56.29873         2.29950
C         23.10148        58.50605         1.77670
C         21.86316        59.06116         1.36647
C         23.03471        61.03988         0.58817
C         21.84545        60.34516         0.77601
C         24.70799         4.29337         1.72213
C         25.81039         6.33134         0.83571
C         24.64414         5.63106         1.24365
C         25.72906         7.64634         0.40767
C         24.46804         8.30373         0.34416
C         25.65444        10.48986         0.50727
C         24.44256         9.75306        -0.09185
C         25.61650        11.97661         0.21208
C         24.32325        12.64849         0.21919
C         25.47716        14.85791         0.08070
C         24.29844        14.11744         0.25419
C         25.47852        16.28217         0.14441
C         24.27295        16.96895         0.40318
C         25.50224        19.18507         0.41856
C         24.18928        18.46942         0.20186
C         25.52264        20.54304         0.74605
C         24.27914        21.26005         1.08608
C         25.65861        23.24889         1.79173
C         24.33543        22.60297         1.40406
C         25.64095        24.77924         1.63858
C         24.35222        25.56268         1.61270
C         25.59532        27.54445         0.76111
C         24.37216        26.88833         0.94857
C         25.62668        28.93135         0.34049
C         24.41972        29.60934         0.07091
C         25.71195        31.65735        -0.55870
C         24.44277        30.99259        -0.38853
C         25.84325        32.98627        -1.30233
C         24.53401        33.74935        -1.46022
C         25.79131        35.97637        -1.05006
C         24.56714        35.25467        -1.46110
C         25.79798        37.40912        -1.13435
C         24.54479        38.19514        -0.82245
C         25.69948        40.31654        -1.36236
C         24.52087        39.61390        -1.35253
C         25.72596        41.77718        -1.29284
C         24.48560        42.49040        -1.07657
C         25.67868        44.60377        -0.66752
C         24.48501        43.86076        -0.73479
C         25.67090        45.99228        -0.31634
C         24.48940        46.67347        -0.08081
C         25.72869        48.89404         0.36525
C         24.50820        48.15370        -0.03595
C         25.73882        50.25591         0.55152
C         24.43182        51.03367         0.62395
C         25.35443        53.17249         1.22351
C         24.36080        52.29607         1.44246
C         25.70002        54.32830         2.06754
C         24.47055        55.00879         2.61131
C         25.71143        57.18633         2.11940
C         24.46325        56.49659         2.53759
C         25.61975        58.69386         2.16218
C         24.30235        59.22653         1.61327
C         24.25328        60.49059         1.00703
C         26.93826         8.33671        -0.17298
C         28.04836        10.55044        -0.22437
C         26.93890         9.83062         0.05079
C         28.05984        12.00356        -0.15431
C         26.77166        12.67893        -0.01154
C         27.96169        14.88883         0.01149
C         26.71550        14.14030        -0.38583
C         27.93728        16.35500        -0.15827
C         26.70960        17.04138        -0.02406
C         27.94457        19.17285         0.01827
C         26.71213        18.46934         0.11611
C         27.96759        20.58532         0.29732
C         26.78007        21.25167         0.72742
C         28.09157        23.30128         1.10236
C         26.86934        22.62049         1.12135
C         28.11572        24.71128         1.67560
C         26.88207        25.47815         1.22121
C         28.09765        27.63317         1.07294
C         26.84760        26.83339         0.99407
C         28.10936        29.00311         0.51373
C         26.89420        29.62823         0.21605
C         28.16330        31.71260        -0.31987
C         26.89885        31.00338        -0.23510
C         28.15684        33.14905        -0.47112
C         26.98273        33.83460        -0.77913
C         28.19168        35.99765        -0.49404
C         26.98013        35.26303        -0.80481
C         28.09009        37.49612        -0.25132
C         26.96794        38.13298        -1.01132
C         28.24487        40.33611        -1.16181
C         27.00866        39.55160        -1.52692
C         28.23745        41.78210        -1.63885
C         26.93694        42.46513        -1.24153
C         28.14103        44.46350        -0.31769
C         26.96909        43.97465        -1.15949
C         28.12003        45.90802         0.12256
C         26.97204        46.79900        -0.35131
C         28.26740        48.70204         0.76066
C         26.92211        48.00646         0.66554
C         28.24655        50.12745         1.28351
C         27.03210        50.90523         0.82483
C         28.36861        53.05005         0.96214
C         27.20563        52.24121         0.62926
C         28.21032        54.42630         1.21399
C         26.99624        55.05516         1.82453
C         26.88077        56.53807         1.88435
C         29.22886        12.70195        -0.29128
C         30.44652        14.94627        -0.44872
C         29.27242        14.15734        -0.06104
C         30.38301        16.30222        -0.57866
C         29.15402        17.04105        -0.33324
C         30.37363        19.17185        -0.49765
C         29.15591        18.46727        -0.29368
C         30.35374        20.63464        -0.39995
C         29.18331        21.30961         0.19003
C         30.56799        23.31656         0.63089
C         29.27894        22.65943         0.61293
C         30.68430        24.70550         1.11935
C         29.44590        25.45273         1.51748
C         30.68204        27.68482         1.06284
C         29.39749        26.95621         1.37792
C         30.60289        29.01883         0.43884
C         29.37577        29.65165         0.25966
C         30.62612        31.75539        -0.30907
C         29.37399        31.04239        -0.15194
C         30.59142        33.17304        -0.35612
C         29.38210        33.87714        -0.33278
C         30.64799        35.99683         0.15471
C         29.37294        35.31670        -0.30642
C         30.69021        37.51116        -0.14042
C         29.40931        38.25770        -0.34080
C         30.70040        40.29572        -0.90820
C         29.43993        39.65577        -0.88472
C         30.77946        41.76067        -0.97247
C         29.51642        42.54306        -1.22030
C         30.57733        44.38354         0.10870
C         29.44785        43.81540        -0.47970
C         30.41900        45.65572         0.77610
C         29.38091        46.53653         0.53431
C         30.75394        48.66985         1.16713
C         29.42852        47.97702         0.78279
C         30.70432        50.15547         0.93243
C         29.54429        50.88420         1.00007
C         29.57907        52.31708         0.96627
C         31.58725        17.03616        -1.11842
C         32.81945        19.17380        -0.79702
C         31.59463        18.50969        -0.79076
C         32.93973        20.55832        -0.49356
C         31.69489        21.34756        -0.39748
C         33.02249        23.30765         0.29279
C         31.74964        22.67762         0.22110
C         33.06589        24.71715         0.48905
C         31.92340        25.43603         0.78269
C         33.14515        27.60931         0.34334
C         31.96148        26.90495         0.88633
C         33.12781        28.92829         0.01510
C         31.80069        29.56650        -0.31752
C         33.08858        31.69793        -0.74504
C         31.85855        31.06734        -0.38875
C         33.05378        33.14834        -1.10946
C         31.80987        33.91449        -0.72241
C         33.18248        35.97081        -0.00381
C         31.88372        35.31885        -0.36999
C         33.14534        37.43528        -0.42379
C         31.98430        38.11735        -0.55625
C         33.21817        40.31972        -0.68574
C         31.98750        39.53431        -1.10233
C         33.19931        41.66706        -0.39693
C         31.96189        42.42808        -0.37360
C         33.18606        44.50883         0.11446
C         31.91084        43.76883        -0.00134
C         33.32855        45.91595         0.16742
C         32.32500        46.77627         0.70907
C         31.98253        48.07926         0.48808
C         34.16385        21.18608        -0.31395
C         35.49519        23.21021         0.10687
C         34.25782        22.58542         0.01823
C         35.62693        24.62643         0.61797
C         34.36886        25.38750         0.26781
C         35.68249        27.60429         0.49308
C         34.40827        26.85807         0.21689
C         35.61473        28.96939        -0.16569
C         34.37682        29.61194        -0.32461
C         35.56832        31.62466        -1.17726
C         34.30284        30.97340        -0.77439
C         35.59629        33.12960        -1.32990
C         34.33271        33.98802        -1.32715
C         35.62012        35.91431        -0.39769
C         34.42976        35.27010        -0.51509
C         35.66021        37.36882        -0.10049
C         34.45316        38.10248        -0.60320
C         35.76934        40.29325        -0.35983
C         34.50419        39.59877        -0.71659
C         35.69096        41.70384        -0.19407
C         34.45644        42.38273        -0.18553
C         34.39488        43.77865        -0.02713
C         36.85319        25.40067         0.17029
C         38.10366        27.49988        -0.17255
C         36.89337        26.76836         0.11673
C         38.11337        28.86682        -0.39410
C         36.85703        29.62172        -0.47984
C         38.12865        31.59338        -1.28008
C         36.85375        30.92473        -0.94853
C         38.16616        33.11504        -1.32951
C         36.89139        33.78004        -0.94101
C         38.19585        35.95638        -0.53542
C         36.91563        35.20174        -0.48417
C         38.20495        37.31640        -0.35464
C         36.97364        38.10132        -0.11011
C         36.95247        39.57413        -0.26704
C         39.35565        29.57400        -0.59447
C         40.61302        31.67142        -1.02473
C         39.39184        30.89933        -0.96560
C         40.63096        33.04048        -1.04561
C         39.42214        33.83306        -1.01687
C         39.40922        35.17923        -0.71155
O         27.74011        44.82645         1.03774
O         19.74263         9.82286        -0.55884
O         17.70304        33.43923        -2.86336
O         23.26336        41.23087        -2.71250
O         30.34847        24.96971         2.55896
O         23.94862        35.84560        -2.66513
O         18.32810        41.11004        -2.69285
O         32.10889        33.48540        -2.16253
O         15.43490        34.65909         0.57816
O         23.75400        33.18509        -2.55161
O         26.73590        54.25477         3.09061
O         34.44225        26.06862        -1.03174
O         31.61857        27.52460         2.18863
O         20.08722        48.92813        -1.29027
O         34.66776        38.72292        -1.90471
O         28.62722        14.49942         1.24554
O         38.16244        32.34925        -2.54891
O         23.81078        57.11911         3.68403
O         18.08422        36.78593        -2.93086
O         30.10337        38.27049         0.96743
O         26.14986        52.98741         0.08471
O         25.16917        25.49911         2.83600
O         22.65194        22.71752         3.14015
O         16.01787        39.77346        -2.54600
O         35.58811        32.30020        -2.51285
O         36.93198        34.08113         0.49569
O         28.65236        27.58971         2.46552
O         18.96013        16.55765        -0.39491
O         16.12676        44.60663        -2.00070
O         27.24314        47.28179        -1.61113
O         36.23696        37.74632         1.17185
O         23.95882        54.54755         3.89191
O         19.88136        49.83202         2.17493
O         22.02045        50.66266         2.74892
O         23.85815        48.70599        -1.24607
O         30.87126        21.31177        -1.60956
O         23.17435        44.91453         1.03872
O         22.42174        37.74609         0.24302
O         18.84822        26.53124         1.83977
O         18.01009        26.37050        -1.58185
O         31.47517        46.06560         1.60070
O         13.78870        33.63444        -2.59783
O         18.18347        23.15236         2.63244
O         23.57742        51.17522        -0.56371
O         30.51106        42.44183        -2.30067
O         20.72415        44.07757         1.22207
H         21.56722        44.43521         1.59958
O         18.86148        31.37985         0.77433
H         19.30136        30.82649         1.45757
O         27.93069        24.57675         3.11860
H         28.11358        25.45630         3.51842
O         13.10774        18.89300        -1.16593
H         13.94778        19.27100        -1.49861
O         27.23872        44.44525        -2.50907
H         26.53993        44.10759        -3.10689
O         26.69886        14.19657        -1.85191
H         25.91530        13.69382        -2.16129
O         16.64854        48.43778        -1.70540
H         17.49765        48.25440        -2.16257
O         26.74529        59.25951         1.50285
H         26.85651        60.18411         1.79934
O         22.73014        25.22706         3.31799
H         23.57336        25.11334         3.81850
O         18.77950        28.55024        -2.48214
H         18.37301        27.70856        -2.79780
O         11.87328        37.76381         1.44898
H         12.30198        36.90538         1.71154
O         16.33704        21.40415         2.80701
H         17.02173        21.98660         3.22322
O         21.69248         7.90868        -1.08475
H         20.84640         8.36698        -1.31042
O         35.74215        27.83598         1.92733
H         36.57180        28.31882         2.12328
O         20.59726        16.02284         2.82117
H         21.49042        15.80568         3.15925
O         17.33454        21.95619        -0.70841
H         17.27981        22.72700        -1.31200
O         20.39932        23.80690         3.45608
H         21.25250        24.23942         3.72027
O         15.88835        45.39449         1.53449
H         15.89843        46.18163         2.11898
O         20.71445        18.77278         3.20081
H         21.37609        19.41118         3.54396
O         30.63909        35.87063         1.61987
H         30.11682        36.64747         1.94612
O         27.11116        39.34894        -2.98406
H         27.41772        40.21090        -3.37277
O         23.90464        18.62932        -1.24157
H         24.61849        18.16897        -1.73295
O         19.66450        52.68334        -0.04384
H         19.54510        53.65712        -0.06315
O         23.68976        52.07408         3.72645
H         24.15072        52.77770         4.24322
O         24.58703         9.79357        -1.54077
H         23.78060         9.38540        -1.92558
O         25.77784        22.95212         3.20617
H         26.55061        23.47946         3.53538
O         27.64912        37.62825         1.15033
H         26.67425        37.79010         1.15760
O         32.80117        16.40513        -0.70054
H         32.82120        16.39730         0.27825
O         20.96306        40.05225         0.54644
H         20.26922        40.52672         1.05074
O         20.61003        28.23579         2.04268
H         20.18554        27.55627         2.62326
O         20.55242        33.52014         0.83416
H         19.77657        32.98866         1.14299
O         28.16318        49.95824         2.73643
H         29.02201        49.56356         3.02332
O         33.31313        35.92843         1.45273
H         32.39880        35.97988         1.83835
O         14.44923        30.75639        -3.17852
H         14.31933        31.68874        -3.47337
O         25.54439        10.32106         1.94846
H         26.29483        10.79414         2.36541
O         26.65544        47.44042         1.97194
H         26.90000        48.12112         2.64031
O         24.77249        38.39392         0.62887
H         23.87843        38.42171         1.05532
O         17.33127        38.16988         0.44047
H         17.10801        37.31694         0.87282
O         13.62737        41.55056         1.47452
H         12.90945        41.03802         1.90522
O         18.93535        31.10877        -2.86014
H         18.40149        31.56506        -3.54684
O         21.78001        44.49490        -2.28922
H         22.27548        43.91563        -2.90537
O         28.21476        41.77033        -3.10737
H         29.14871        41.93138        -3.39482
O         12.90771        20.07698         2.29153
H         13.18624        20.89832         2.74926
O         13.26714        35.54786         1.27198
H         14.17623        35.18832         1.52506
O         32.07533        39.37348        -2.56112
H         32.23788        40.25857        -2.95187
O         11.09584        37.61273        -2.13312
H         10.34729        37.23504        -2.64048
O         35.66924        24.53866         2.07648
H         36.49090        24.06970         2.33057
O         31.54103        29.12619        -1.71212
H         32.19697        29.57395        -2.28948
O         26.91930         8.11612        -1.60062
H         26.14443         8.62000        -1.94833
O         26.26801        32.61564        -2.64916
H         25.44556        32.49685        -3.18003
O         21.68720        12.76318        -1.42111
H         20.84973        13.24393        -1.59640
O         30.85720        48.50051         2.61845
H         31.02867        47.53864         2.76577
O         10.86359        27.04733        -2.81403
H         11.65995        27.51516        -3.14522
O         34.26953        34.52914        -2.67268
H         34.22393        33.76723        -3.29220
O         21.54067        39.39397        -2.98348
H         21.86554        40.18523        -3.47268
H          4.94678        31.06078        -0.68039
H          4.95384        33.52811        -0.52423
H          7.39022        26.79402        -0.69994
H          6.17949        28.91472        -0.81661
H          6.21217        35.66783        -0.40778
H          7.44292        37.76513        -0.12627
H          9.79694        22.57916        -0.18632
H          8.59666        24.68306        -0.44062
H          8.67442        39.89632         0.11181
H          9.85474        42.06006        -0.04456
H         12.27052        18.27750         0.61448
H         10.94984        20.51697         0.30090
H         11.03876        44.23623         0.07469
H         12.25390        46.37394         0.26045
H         14.77890        14.08715         1.06718
H         13.52084        16.18677         0.62023
H         13.46744        48.49936         0.63596
H         14.72491        50.49771         1.29206
H         17.41290         9.90231         1.77068
H         16.06444        11.97170         1.44767
H         15.97596        52.56480         1.86284
H         17.23381        54.70801         2.31950
H         20.09161         5.79393         2.07720
H         18.87770         7.83460         2.01649
H         18.47614        56.79629         1.95579
H         19.69527        58.79025         1.31439
H         23.61743         2.59104         2.47816
H         21.40455         3.73342         2.39390
H         23.02184        62.03222         0.11651
H         20.88852        60.78201         0.45760
H         25.68498         3.79310         1.78521
H         26.78407         5.81948         0.85906
H         25.65295        58.98743         3.25626
H         25.18317        61.05608         0.85214
H         27.87989         7.87507         0.21874
H         28.97628        10.04044        -0.52616
H         29.12899        55.02768         1.32716
H         27.76383        57.13847         1.61537
H         30.17239        12.16541        -0.47307
H         31.37566        14.42111        -0.71772
H         31.66063        50.67941         0.77477
H         30.55126        52.82894         1.03585
H         31.56108        16.94712        -2.24263
H         33.73147        18.58409        -0.97265
H         34.30125        46.34210        -0.12368
H         32.55948        48.69661        -0.21476
H         35.09208        20.60693        -0.43082
H         36.40603        22.62109        -0.08794
H         36.61355        42.27428        -0.00937
H         35.34207        44.33497         0.04249
H         37.77322        24.83118        -0.04403
H         39.05247        26.94364        -0.22825
H         39.15894        37.86319        -0.41788
H         37.89956        40.11724        -0.12138
H         40.29681        29.03574        -0.40395
H         41.56553        31.12419        -0.96016
H         41.59582        33.56706        -0.99702
H         40.36905        35.69303        -0.54587
