         244
 CSIRO Nanostructure Databank - Neutral Graphene Oxide Data Set
C          1.22039         2.05715         0.06209
C          1.19434         3.44501        -0.01715
C          2.43566         1.36371         0.03927
C          2.39370         4.19147        -0.13330
C          1.19860         6.38760        -0.30037
C          1.21783         7.76188        -0.43205
C          2.39778         5.63537        -0.24396
C          2.43692         8.47926        -0.54650
C          1.21970        10.69092        -0.65717
C          1.20231        12.07812        -0.57193
C          2.44693         9.94540        -0.65824
C          2.38094        12.84351        -0.57867
C          1.19048        15.02188        -0.27713
C          1.19821        16.38699        -0.11303
C          2.40238        14.26939        -0.41323
C          2.42388        17.11083        -0.07837
C          2.46137        18.52766         0.03641
C          3.65005         2.06075        -0.07606
C          3.63325         3.49316        -0.17732
C          4.90098         1.35844        -0.02342
C          4.86452         4.21578        -0.26650
C          3.63407         6.33692        -0.32010
C          3.64059         7.74776        -0.50847
C          4.87737         5.60785        -0.27854
C          4.93886         8.43756        -0.66414
C          3.64533        10.64927        -0.66905
C          3.66479        12.13538        -0.93058
C          4.94192         9.94839        -0.70144
C          4.88557        12.82139        -0.38176
C          3.64444        14.96275        -0.35533
C          3.65155        16.38838        -0.19250
C          4.89460        14.22003        -0.27885
C          4.87155        17.10685        -0.16958
C          3.65876        19.21184        -0.00008
C          4.89725        18.51390        -0.12789
C          6.11719         2.01471        -0.12949
C          6.14279         3.46530        -0.55212
C          7.35605         1.33536        -0.03895
C          7.38034         4.19703        -0.08997
C          6.14935         6.32917        -0.20774
C          6.17317         7.73259        -0.27324
C          7.36135         5.60836        -0.02795
C          7.36428         8.47889         0.06355
C          6.13670        10.65544        -0.18124
C          6.05235        12.07999        -0.05034
C          7.29401         9.93584         0.18242
C          7.14427        12.78683         0.53487
C          6.13532        14.91744        -0.05386
C          6.14304        16.37875        -0.50563
C          7.25080        14.22011         0.42190
C          7.37514        17.12447         0.02703
C          6.13953        19.23700        -0.23986
C          7.39226        18.63330        -0.30517
C          8.57280         2.04048        -0.01282
C          8.55396         3.47710         0.11733
C          9.82720         1.36249        -0.07384
C          9.82434         4.12931         0.59602
C          8.66469         6.36705        -0.07420
C          8.53623         7.79964         0.37829
C          9.84376         5.63815         0.51741
C          9.73456         8.45814         0.94070
C          8.39071        10.63217         0.78687
C          8.14452        11.96133         1.11298
C          9.69529         9.96402         1.16447
C         10.01614        12.96727         1.17536
C          8.57705        14.98105         0.70079
C          8.58192        16.17643        -0.28842
C          9.87220        14.18714         0.53888
C          9.91162        16.80753        -0.57070
C          8.55490        19.47658        -0.20502
C          9.85859        19.09501        -0.56476
C         11.03207         2.05532        -0.16964
C         10.99438         3.57319        -0.24751
C         12.26770         1.38641        -0.28711
C         12.29641         4.22014         0.15567
C         11.01369         6.30576         0.77018
C         11.04161         7.75971         0.84022
C         12.29454         5.51387         0.97980
C         12.23914         8.46590         0.93538
C         11.02910        10.66525         1.08548
C         11.11254        12.08810         0.96196
C         12.24069         9.92994         0.99894
C         12.32754        12.75199         0.63814
C         11.09112        14.80433         0.14368
C         11.10869        16.14891        -0.38841
C         12.30684        14.14378         0.33532
C         12.36302        16.79544        -0.66143
C         11.10495        19.65873        -0.23217
C         12.36018        19.04511        -0.55487
C         13.48691         2.08831        -0.28485
C         13.45496         3.53110        -0.01826
C         14.71978         1.39700        -0.37288
C         14.75180         4.14897         0.44943
C         13.53469         6.35905         0.77977
C         13.49644         7.73255         0.82910
C         14.77863         5.66377         0.47878
C         14.79631         8.49432         0.59938
C         13.49852        10.63850         0.91209
C         13.53821        12.01331         0.70571
C         14.78266         9.89051         1.22755
C         14.80413        12.76735         0.52284
C         13.53050        14.96582         0.44749
C         13.56424        16.32758        -0.12353
C         14.82325        14.25607         0.69389
C         14.79158        17.06749        -0.14042
C         13.62799        19.35643        -0.09859
C         14.80973        18.50703        -0.25617
C         15.95551         2.07220        -0.41814
C         15.89773         3.55184        -0.35138
C         17.17657         1.45739        -0.72116
C         17.12446         4.35057        -0.65224
C         15.97616         6.32449         0.44308
C         16.04410         7.70513         1.05126
C         17.13169         5.85275        -0.40047
C         17.31069         8.46764         0.71599
C         16.08395        10.59247         0.86606
C         16.09323        12.05077         0.62378
C         17.27262         9.89270         0.72811
C         17.32500        12.81934         0.98863
C         16.07461        14.98629         0.44593
C         16.04376        16.35792         0.10565
C         17.35012        14.34908         0.96522
C         17.27877        17.05452        -0.06208
C         16.05686        19.14631        -0.35212
C         17.28149        18.43103        -0.35924
C         18.38282         2.19664        -0.86694
C         18.40083         3.61901        -0.76398
C         19.62427         1.51762        -1.08714
C         19.61833         4.32487        -0.71665
C         18.47774         6.42239        -0.03927
C         18.51995         7.78558         0.38464
C         19.65417         5.74013        -0.39613
C         19.76720         8.47869         0.35987
C         18.54700        10.63540         0.35431
C         18.59882        12.07395         0.87052
C         19.80433         9.89141         0.88679
C         19.85242        12.81847         0.65127
C         18.58050        14.89330         0.28178
C         18.61986        16.39755         0.20597
C         19.79584        14.17629         0.24163
C         19.66627        16.87961        -0.79232
C         18.52978        19.10071        -0.63842
C         19.70776        18.39801        -0.81733
C         20.80841         2.20897        -1.14702
C         20.84504         3.62253        -0.93695
C         22.06129         4.34106        -0.94486
C         20.90995         6.43242        -0.42111
C         20.92923         7.85914        -0.14503
C         22.08606         5.71228        -0.71850
C         22.06144         8.66880        -0.42013
C         21.04355        10.67374         0.52560
C         21.13198        12.11383         1.00322
C         22.06719        10.05360        -0.16577
C         22.33453        12.86739         0.51302
C         21.03291        14.86793        -0.12390
C         21.01213        16.21223        -0.55528
C         22.26618        14.13216         0.02583
C         22.17112        16.94296        -0.88308
C         20.93610        19.03951        -1.13194
C         22.12028        18.31316        -1.19659
O         17.95173        12.25807         2.20270
O          9.53312         9.04878         2.28871
O         14.79358         3.76829         1.81409
O          5.12745         9.16773        -1.94308
O          9.88554        17.92306        -1.37725
O         15.55302        12.41128        -0.70964
O          9.00109        12.56027         2.04313
O         16.12003         4.07486        -1.71424
O         12.32243        17.93350        -1.44775
O         14.07484        14.81580         1.82813
O         16.83600         6.51680        -1.69503
H         16.33998         5.84414        -2.22518
O         16.07061         7.48280         2.48023
H         15.79128         8.31442         2.93154
O         17.43291        14.78733         2.37314
H         17.79563        14.01253         2.87101
O          8.41724        15.51894        -1.58073
H          8.23331        16.20570        -2.25935
O          7.14823        17.17928         1.45139
H          7.90367        17.62916         1.88242
O         19.68549         9.81561         2.32812
H         20.11292        10.62313         2.70991
O          3.79075        12.25834        -2.40968
H          3.15686        11.62384        -2.80786
O         10.71343         3.92568        -1.62641
H         11.47658         3.64859        -2.17451
O         19.04719        16.84746         1.52728
H         18.46122        16.38531         2.17689
O          8.61796        15.40519         2.07898
H          8.61754        14.58579         2.62301
O         10.00760         3.70973         1.96496
H         10.85604         4.11069         2.30341
O          6.24070         3.43282        -2.02318
H          5.47146         2.92289        -2.35515
O         19.21951        16.44802        -2.10938
H         19.87639        16.76171        -2.76536
O          6.16081        16.39763        -1.96706
H          5.39978        15.86151        -2.27683
O         21.23975        12.05223         2.48999
H         21.12169        12.96565         2.82860
O         14.92965         8.70176        -0.82849
H         15.40796         7.92664        -1.21408
O         18.63821        10.67959        -1.08197
H         17.74868        10.86774        -1.45011
O         14.75800         9.75629         2.68356
H         14.79562        10.65241         3.07911
O         12.37778         5.01790         2.35719
H         13.26415         4.53538         2.40617
O          8.98247         6.46574        -1.51914
H          8.15152         6.67889        -1.99615
H          0.27759         1.49989         0.15272
H          0.22437         3.95873         0.01377
H          2.44689         0.26755         0.12158
H          0.22696         5.87956        -0.24061
H          0.25857         8.29430        -0.45929
H          0.25801        10.16310        -0.65569
H          0.22622        12.57276        -0.46704
H          0.22476        14.49988        -0.31274
H          0.24965        16.93592        -0.02079
H          1.51362        19.07825         0.12827
H          4.88404         0.27366         0.16401
H          3.66786        20.31013         0.05807
H          7.36487         0.23749         0.04255
H          6.08132        20.33603        -0.28416
H          9.83161         0.26192        -0.11324
H          8.38882        20.51541         0.12285
H         12.28001         0.28585        -0.32485
H         11.11941        20.54727         0.41457
H         14.70146         0.30116        -0.48088
H         13.78386        20.31395         0.42144
H         17.21534         0.36318        -0.83706
H         16.08524        20.24104        -0.45998
H         19.61467         0.42424        -1.20478
H         18.52587        20.19649        -0.74824
H         21.75367         1.67592        -1.32537
H         23.00110         3.80236        -1.13378
H         23.05390         6.23223        -0.73787
H         22.96110         8.22026        -0.86292
H         22.96352        10.62609        -0.44678
H         23.32192        12.40257         0.65193
H         23.20685        14.62602        -0.25849
H         23.15874        16.46215        -0.84486
H         20.95115        20.12928        -1.28177
H         23.05869        18.83460        -1.43321
