         477
 CSIRO Nanostructure Databank - Neutral Graphene Oxide Data Set
C         27.82514        27.44057         0.86831
C         27.76851        28.84907         0.35734
C         26.61724        29.64936         0.88728
C         27.88321        31.71360         0.53657
C         26.67405        30.99712         0.90391
C         27.89257        33.11161         0.32938
C         26.64662        33.87512         0.30204
C         27.94183        35.98086         0.46525
C         26.64292        35.21903         0.33055
C         27.88333        37.43668         0.04191
C         26.66535        38.14187         0.09311
C         27.81458        40.25338        -0.22982
C         26.62225        39.51469        -0.07168
C         27.80037        41.70066        -0.20253
C         26.59739        42.45087        -0.17693
C         27.84122        44.51954         0.11797
C         26.61657        43.82271         0.00800
C         27.86831        45.94749         0.40974
C         30.24171        27.36645         0.50728
C         29.00064        26.74222         0.83375
C         30.28333        28.78826         0.38519
C         29.08916        29.56126         0.48660
C         30.33995        31.70063         0.31924
C         29.11499        30.98809         0.45526
C         30.34249        33.09409         0.11157
C         29.10906        33.78932         0.09484
C         30.36717        35.98545        -0.18164
C         29.05102        35.25040        -0.29148
C         30.36145        37.39075        -0.26975
C         29.08240        38.12369        -0.22754
C         30.28546        40.28881        -0.35631
C         29.05095        39.55018        -0.33704
C         30.27200        41.65520        -0.11743
C         29.03776        42.38847        -0.08570
C         30.31967        44.53888         0.07392
C         29.05463        43.81037         0.02428
C         30.26696        46.03406        -0.21308
C         29.01315        46.65600         0.35854
C         32.82073        24.73041         1.40392
C         31.64087        25.29089         1.08875
C         32.72316        27.37493         0.24238
C         31.47884        26.53430         0.22810
C         32.71800        28.73832         0.03741
C         31.51221        29.47483         0.13261
C         32.81981        31.64510        -0.18182
C         31.62970        30.94526         0.42709
C         32.79653        33.10640        -0.28062
C         31.59341        33.81867        -0.11877
C         32.81675        35.95837        -0.41029
C         31.58666        35.25295        -0.22380
C         32.81415        37.39336        -0.52375
C         31.59144        38.09005        -0.43099
C         32.82502        40.31291        -0.50406
C         31.53689        39.55575        -0.80890
C         32.79467        41.72221        -0.00303
C         31.48233        42.35164         0.46532
C         32.76177        44.59873         0.43435
C         31.48763        43.86092         0.26214
C         32.73618        46.06759         0.18189
C         31.55662        46.76564         0.11500
C         32.72799        48.89101         0.62344
C         31.59227        48.20186         0.26194
C         35.50123        23.28745         1.47733
C         35.41149        24.62488         0.97347
C         34.12344        25.38213         1.09858
C         35.15381        27.24422        -0.36077
C         34.03430        26.74477         0.50190
C         35.01694        28.66543        -0.89583
C         34.06029        29.46813         0.04928
C         35.30331        31.61996        -0.36896
C         33.96643        30.92553        -0.34768
C         35.23417        33.02829        -0.97973
C         34.00375        33.81282        -0.55944
C         35.24616        35.93698        -1.01267
C         34.01785        35.20929        -0.59567
C         35.29493        37.40214        -0.80722
C         34.08187        38.10651        -0.65944
C         35.29428        40.21825        -0.31858
C         34.10031        39.54426        -0.46477
C         35.35388        41.62059         0.17951
C         34.04600        42.28647         0.65090
C         35.28550        44.57358         0.08355
C         34.06111        43.84045         0.58305
C         35.28311        46.06188         0.28766
C         33.99795        46.82696         0.28606
C         35.23379        48.91009         0.91049
C         34.00418        48.24748         0.72483
C         35.32903        50.36264         0.89266
C         37.85590        23.10311         0.84321
C         36.66713        22.54885         1.37084
C         37.90003        24.58966         0.61737
C         36.53932        25.23122         0.44302
C         37.66207        27.13613        -0.83745
C         36.44309        26.51675        -0.28781
C         37.67979        28.54320        -1.47464
C         36.36836        29.35874        -1.22928
C         37.73392        31.56297        -1.03168
C         36.42629        30.84923        -1.06438
C         37.77384        32.94661        -0.97971
C         36.54290        33.78640        -0.65822
C         37.84021        35.94721        -1.40145
C         36.51549        35.19058        -1.26171
C         37.80858        37.36904        -0.86424
C         36.56686        38.04556        -0.72634
C         37.85536        40.25494        -0.62351
C         36.55293        39.52564        -0.65335
C         37.89241        41.70822        -0.32267
C         36.62006        42.40379        -0.00192
C         37.95428        44.52725        -0.59786
C         36.56968        43.88517        -0.25672
C         38.06960        46.03734        -0.49506
C         36.35243        46.70275         1.11798
C         37.73281        48.81365         0.87236
C         36.49348        48.17798         0.93090
C         37.76506        50.22923         1.42163
C         36.51051        50.99427         1.05599
C         40.29774        20.30274         1.21314
C         39.12899        21.00417         1.13859
C         40.23238        23.00152         0.13705
C         39.06792        22.37686         0.69204
C         40.19104        24.32514        -0.42529
C         38.94587        25.01040        -0.39023
C         40.53144        27.26578        -1.16429
C         38.67682        26.23220        -1.09451
C         40.21787        28.64340        -0.74960
C         38.94652        29.37133        -1.06046
C         40.17820        31.54332        -0.69282
C         38.94345        30.75293        -0.97512
C         40.21718        32.97916        -1.05303
C         39.03193        33.66647        -1.06506
C         40.32513        35.88962        -0.79547
C         39.02821        35.14957        -0.88558
C         40.31300        37.37335        -0.81934
C         39.05439        38.03105        -0.69982
C         40.35170        40.19203        -0.22942
C         39.02744        39.42383        -0.12205
C         40.34277        41.68025        -0.12206
C         39.04373        42.37537        -0.07911
C         40.33703        44.55221         0.26196
C         39.00281        43.84250         0.29245
C         40.30489        45.96859         0.47281
C         39.04200        46.68700         0.26154
C         40.16665        48.85980         0.50012
C         38.98703        48.13661         0.53780
C         40.08821        50.36666         0.29724
C         39.02863        51.00754         1.15013
C         40.35004        53.04891         1.42016
C         39.16192        52.29277         1.60669
C         42.74591        20.24847         0.94375
C         41.52519        20.88270         0.76412
C         42.81517        22.85015        -0.23072
C         41.45928        22.17678         0.06785
C         42.80934        24.32410        -0.48888
C         41.50099        25.02480        -0.76585
C         42.78627        27.21400        -0.31411
C         41.54467        26.52051        -0.62093
C         42.77706        28.66104        -0.43323
C         41.48421        29.37600        -0.33713
C         42.75223        31.54391        -0.67393
C         41.48048        30.86392        -0.41783
C         42.86081        32.96486        -1.18606
C         41.51286        33.67830        -1.28892
C         42.96765        35.85531        -1.17546
C         41.57401        35.17435        -1.21414
C         42.84000        37.38757        -1.12633
C         41.54462        38.05250        -0.88220
C         42.86584        40.29956        -0.68590
C         41.54830        39.51307        -0.82403
C         42.77400        41.68768        -0.13954
C         41.55664        42.50742        -0.52659
C         42.78232        44.58109         0.28931
C         41.54413        43.88252         0.11887
C         42.77360        46.00021         0.47440
C         41.51164        46.68053         0.56458
C         42.76418        48.91161         0.64084
C         41.46759        48.16039         0.65649
C         42.76099        50.36840         0.27211
C         41.44130        51.10017         0.32178
C         42.73724        53.15185         0.91559
C         41.49402        52.48984         0.83938
C         43.98024        20.90483         0.71323
C         45.29952        22.97540         0.26171
C         44.04726        22.21298         0.26282
C         45.28548        24.37873         0.15978
C         43.93500        25.07043         0.24100
C         45.25812        27.20556        -0.28917
C         43.97085        26.52958        -0.10609
C         45.23834        28.69675        -0.51136
C         43.94595        29.38689        -0.44827
C         45.11422        31.58915        -0.19906
C         43.93958        30.83712        -0.48201
C         44.83300        32.92948         0.22798
C         43.86690        33.73477        -0.29991
C         45.29470        35.98703        -0.10311
C         43.88514        35.25811        -0.07429
C         45.33737        37.35723        -0.36481
C         44.14543        38.14489        -0.80489
C         45.28522        40.26932        -0.09443
C         44.10166        39.56484        -0.46336
C         45.28599        41.64961         0.12191
C         44.03322        42.39986         0.23590
C         45.23173        44.57857         0.16105
C         44.02934        43.88248         0.23259
C         45.22294        45.99879         0.22421
C         44.02626        46.69481         0.42499
C         45.24180        48.89357        -0.04326
C         44.11755        48.18239         0.71106
C         45.25366        50.41731         0.03793
C         44.02231        51.12847         0.44471
C         43.96042        52.49277         0.68563
C         47.73327        23.02048         0.46594
C         46.55122        22.31278         0.37384
C         47.74881        24.43741         0.42106
C         46.50940        25.11324         0.22464
C         47.69679        27.28438         0.24174
C         46.52474        26.54870         0.11539
C         47.67286        28.80422         0.39238
C         46.49189        29.50028        -0.33210
C         47.75407        31.69334         0.12472
C         46.45718        30.99474        -0.17850
C         47.82296        33.14667         0.18095
C         46.71511        33.95717         0.47501
C         47.82246        35.98347        -0.06824
C         46.58695        35.31788         0.11061
C         47.83042        37.44525         0.22301
C         46.54806        38.13794        -0.16633
C         47.79043        40.26397         0.05460
C         46.54091        39.52292        -0.07443
C         47.79102        41.65132         0.20985
C         46.52253        42.42512         0.45621
C         47.77735        44.57240         0.13728
C         46.50951        43.82633        -0.19671
C         47.78139        45.98734         0.14904
C         46.48624        46.68693        -0.26071
C         47.72501        48.88802         0.02626
C         46.54869        48.18921        -0.04234
C         47.71172        50.33299         0.14068
C         46.56855        51.06188         0.13856
C         50.20513        24.56796         0.86851
C         48.96976        25.20421         0.58839
C         50.15633        27.38827         0.69987
C         48.94488        26.62614         0.51282
C         50.18777        28.80814         0.42578
C         48.97702        29.46182        -0.19924
C         50.20824        31.65646        -0.09962
C         48.93814        30.97571        -0.01127
C         50.25194        33.09926        -0.20489
C         49.04033        33.83582        -0.09681
C         50.30152        35.96748        -0.19220
C         49.04753        35.26779        -0.10770
C         50.32890        37.42876        -0.23517
C         49.09262        38.16367        -0.17167
C         50.28009        40.33204        -0.20165
C         49.04108        39.55164        -0.13115
C         50.23518        41.71334         0.29510
C         49.01617        42.39019         0.35276
C         50.20760        44.54729         0.22044
C         48.99756        43.84938         0.35617
C         50.18970        45.94553        -0.21471
C         48.97407        46.70156         0.10330
C         50.28272        48.79217        -0.34879
C         49.05092        48.18821         0.30077
C         51.35428        25.30197         1.10461
C         52.59593        27.47461         1.33537
C         51.35423        26.71259         1.04718
C         52.60686        28.97196         0.99706
C         51.36326        29.54280         0.44435
C         52.68752        31.52573        -0.31884
C         51.39082        30.90138        -0.03007
C         52.72173        33.04979        -0.42910
C         51.47096        33.81145        -0.27297
C         52.80949        35.94830        -0.50049
C         51.49611        35.23104        -0.24262
C         52.81482        37.39688        -0.04179
C         51.56620        38.09975        -0.17945
C         52.81683        40.21965         0.35325
C         51.61138        39.56579        -0.16249
C         52.76565        41.63272         0.74126
C         51.46372        42.36526         0.70432
C         52.76364        44.56052         0.24140
C         51.48283        43.94078         0.56673
C         52.78633        45.82253        -0.63357
C         51.45715        46.61720        -0.64164
C         51.40172        48.10942        -0.64928
C         55.07155        27.53477         1.35386
C         53.90998        26.81546         1.40641
C         55.10828        28.91757         0.98997
C         53.90468        29.61944         0.68439
C         55.24716        31.46999        -0.44879
C         53.94592        30.84326         0.01877
C         55.25524        32.94604        -0.04147
C         53.99624        33.69221        -0.00931
C         55.35565        35.92144        -0.07195
C         54.01947        35.20117         0.03176
C         55.23550        37.26063         0.70822
C         53.99694        38.04951         0.28901
C         55.26648        40.18872         0.58840
C         54.02391        39.49988         0.45795
C         55.39833        41.70277         0.72499
C         54.05422        42.43772         0.80034
C         55.18361        44.49810        -0.04808
C         53.97297        43.86948         0.39007
C         55.19232        45.93606        -0.17900
C         54.02934        46.62182        -0.32211
C         56.36584        29.57173         0.75778
C         56.44768        30.75673         0.10038
C         56.42071        33.65709         0.33345
C         56.48149        35.03341         0.38461
C         56.49422        38.07282         0.64097
C         56.47576        39.43855         0.63033
C         56.36443        42.35719        -0.22684
C         56.32285        43.70701        -0.40877
O         34.46727        29.48109         1.40251
O         40.70611        31.44904         0.70059
O         34.88213        46.75035        -0.92689
O         51.09238        40.18376        -1.41630
O         36.28420        41.86839         1.32645
O         43.65628        37.95122        -2.19406
O         37.26144        40.01524        -1.92474
O         36.13567        30.26197        -2.36589
O         42.10308        50.82256        -0.96217
O         39.61170        35.45335         0.42033
O         50.58196        46.07981        -1.69497
O         33.44517        44.39877         1.76618
O         43.11908        41.80280         1.26033
O         53.79513        34.48431         1.24830
O         42.41863        24.61965        -1.84939
O         34.33150        26.59703         1.92840
O         44.94479        49.65922        -1.21939
O         40.64114        40.84875         1.05821
O         46.48888        46.40809        -1.65024
O         52.76866        32.23369        -1.63277
O         47.58605        29.08421         1.73333
O         45.36532        27.79310        -1.65615
O         40.60392        28.82570         0.67232
O         41.39669        34.50878        -2.50213
O         35.64991        35.46350        -2.40103
O         32.93202        41.49574        -1.42182
O         42.17113        40.16791        -1.97924
O         46.71947        30.27971        -1.51880
O         42.10147        22.11490        -1.25195
O         35.44233        26.31155        -1.44673
O         42.08319        48.71596         1.93515
O         39.64968        26.61851        -2.02386
O         52.45235        28.51108         2.37210
O         45.67387        33.42686         1.22898
O         51.33845        43.24132         1.84140
O         36.85527        46.11274         2.06697
O         37.27112        46.63422        -1.43319
O         35.58544        44.18920        -1.29898
O         53.42413        41.98454         2.03029
O         41.54161        42.75955        -1.94192
H         41.68708        41.90222        -2.41072
O         37.66901        47.99142        -1.70088
H         36.85488        48.36080        -2.12294
O         37.78661        28.35421        -2.89697
H         37.35264        29.13400        -3.31824
O         44.56952        48.29239         2.09298
H         43.77557        48.14093         2.65871
O         38.11145        36.06795        -2.82287
H         37.24472        36.21601        -3.26834
O         37.72626        50.06863         2.88194
H         36.95856        49.49827         3.10113
O         27.54745        28.74799        -1.11380
H         28.29511        28.22667        -1.47831
O         47.84905        37.51531         1.71086
H         47.08596        36.99212         2.03869
O         49.25808        48.41018         1.74532
H         50.07330        47.93543         2.01228
O         38.49068        43.95470         1.64015
H         39.15730        43.59793         2.26313
O         55.32967        31.40057        -1.90714
H         54.44957        31.68349        -2.25671
O         39.57415        50.52842        -1.06649
H         40.35607        50.48233        -1.66639
O         52.97174        35.98033        -1.95014
H         52.26713        36.55133        -2.32340
O         34.27664        28.55027        -2.12495
H         34.70933        27.84813        -2.66069
O         43.42198        32.83383        -2.51196
H         43.45341        33.75084        -2.88588
O         55.03973        36.88699         2.09975
H         54.99751        37.70783         2.63324
O         36.62115        34.09583         0.75260
H         36.49691        33.25034         1.25469
O         28.67586        35.28970        -1.70038
H         29.41158        34.90851        -2.22372
O         38.40435        25.14916         1.90587
H         37.73711        24.93972         2.59511
O         31.96693        30.80459         1.86402
H         32.86805        30.36008         1.90426
O         38.74555        39.21434         1.28665
H         39.30754        39.84555         1.79800
O         35.68682        31.71275         1.02542
H         35.35555        30.86390         1.46984
O         31.41703        39.53107        -2.26678
H         31.73240        40.40648        -2.58938
O         49.06160        29.14698        -1.59635
H         48.29586        29.57385        -2.05469
O         43.29714        35.56446         1.20159
H         43.72706        35.00687         1.88422
O         31.33499        26.03668        -1.15301
H         30.51701        25.49663        -1.18652
O         43.51923        24.95253         1.64687
H         44.18052        25.41924         2.20073
O         43.65558        35.52026        -2.39382
H         43.33650        36.11633        -3.10579
O         52.98817        45.34530        -2.00055
H         52.09250        45.28667        -2.41317
O         38.21569        44.15777        -1.95911
H         37.43205        44.41122        -2.49451
O         56.01637        41.90185         2.04160
H         55.28824        41.80375         2.69838
O         31.33070        42.11902         1.89043
H         32.15442        42.43153         2.33847
O         55.61580        36.30227        -1.44104
H         55.54151        35.50856        -2.01081
O         46.51543        43.70054        -1.63575
H         46.48957        44.65081        -1.96820
O         46.47061        42.70557         1.89130
H         46.30630        41.86352         2.36589
O         30.14330        46.15628        -1.66982
H         29.31575        45.69985        -1.93252
O         35.14172        32.83380        -2.40265
H         35.12902        33.72586        -2.82573
O         28.31750        35.97377         1.86980
H         27.64573        36.48256         2.36922
O         33.92158        41.92477         2.04224
H         34.78824        42.11201         2.47294
H         26.88615        26.93619         1.13707
H         25.69825        29.12007         1.17861
H         25.80039        31.57385         1.23897
H         25.69433        33.32896         0.24843
H         25.67975        35.74822         0.32761
H         25.72329        37.61298         0.28774
H         25.65315        40.02625        -0.00732
H         25.62810        41.94499        -0.27955
H         25.67251        44.38305         0.06721
H         26.92709        46.42710         0.71866
H         28.99162        25.67306         1.09410
H         29.00244        47.72888         0.59764
H         32.82555        23.78324         1.96553
H         30.72080        24.75632         1.37190
H         32.64937        49.96983         0.82005
H         30.65483        48.76523         0.15756
H         34.60743        22.81069         1.90076
H         34.42105        50.95054         0.69536
H         36.63829        21.49865         1.69019
H         36.55561        52.09292         1.02559
H         40.30951        19.28423         1.62733
H         38.21001        20.52194         1.49433
H         40.40752        54.06365         1.83984
H         38.34285        52.74986         2.18081
H         42.76073        19.24647         1.39683
H         42.75155        54.20613         1.22881
H         44.89656        20.38336         1.02268
H         44.88660        53.08056         0.75142
H         48.67116        22.45987         0.57547
H         46.58707        21.21540         0.40022
H         48.67032        50.85403         0.27401
H         46.61594        52.14727         0.30603
H         50.26254        23.47355         0.93404
H         50.30712        49.88872        -0.44442
H         52.27799        24.76361         1.35605
H         52.27505        48.65578        -1.03826
H         56.03311        27.01452         1.47792
H         53.96389        25.72592         1.53941
H         56.15816        46.46252        -0.14236
H         54.03060        47.71671        -0.41839
H         57.28529        29.05715         1.07561
H         57.43813        31.17435        -0.12958
H         57.35079        33.10104         0.51902
H         57.45816        35.50007         0.57832
H         57.45735        37.54839         0.71361
H         57.42678        39.98968         0.66848
H         57.22326        41.77678        -0.59336
H         57.13888        44.20870        -0.95093
