         668
 CSIRO Nanostructure Databank - Neutral Graphene Oxide Data Set
C          5.84102        31.73374        -0.02732
C          5.82227        33.10110        -0.04293
C          8.36134        27.44864        -0.10605
C          8.30344        28.82764         0.09790
C          7.09965        29.58319         0.04685
C          8.28997        31.74611         0.04747
C          7.07914        30.99441         0.04569
C          8.28824        33.15046        -0.06615
C          7.04041        33.87252        -0.04084
C          8.28352        35.99188         0.05774
C          7.05687        35.26591         0.01157
C          8.31409        37.39316         0.17620
C         10.87636        23.14342        -0.26260
C         10.83436        24.59751        -0.27007
C          9.61857        25.31751        -0.22221
C         10.83943        27.43674         0.03884
C          9.60205        26.72747        -0.09214
C         10.85253        28.85325         0.21541
C          9.56431        29.53327         0.39555
C         10.82647        31.71348         0.00193
C          9.56416        31.06395         0.32521
C         10.77446        33.12069        -0.51994
C          9.51887        33.86854        -0.14229
C         10.77722        35.98529        -0.01570
C          9.52823        35.26284        -0.04984
C         10.78217        37.38061         0.17381
C          9.53410        38.10999         0.25309
C         10.77371        40.22541         0.58213
C          9.56564        39.51184         0.41189
C         10.78165        41.62208         0.79075
C         13.34785        18.86989        -0.31681
C         13.31319        20.29085        -0.53804
C         12.12217        21.00921        -0.36599
C         13.23408        23.22419        -0.97613
C         12.04511        22.42465        -0.47469
C         13.30294        24.52308        -0.16973
C         12.05456        25.31654        -0.22164
C         13.30406        27.42066         0.18008
C         12.08978        26.72759        -0.01348
C         13.35787        28.89735         0.48578
C         12.04159        29.59187         0.24765
C         13.28385        31.72526        -0.17894
C         12.02905        31.01706         0.06564
C         13.26529        33.15569        -0.23155
C         12.04286        33.86627        -0.21781
C         13.25675        35.98643        -0.00551
C         12.02088        35.26869        -0.08552
C         13.23686        37.38797         0.16880
C         12.02385        38.07859         0.28280
C         13.22213        40.14263         0.88631
C         12.03988        39.50724         0.55388
C         13.20097        41.53859         1.29942
C         11.96959        42.31519         1.08876
C         13.25640        44.42008         1.17658
C         12.03611        43.71961         1.16263
C         13.18084        45.91756         0.98912
C         15.69104        14.46045        -0.17612
C         15.70087        15.97393        -0.22935
C         14.56032        16.70353        -0.12208
C         15.76869        18.81724        -0.65787
C         14.52076        18.13893        -0.38054
C         15.73287        20.24222        -0.89258
C         14.54751        20.96004        -0.87943
C         15.71980        23.01618        -0.20041
C         14.59822        22.47355        -1.13636
C         15.85255        24.53386        -0.24048
C         14.59730        25.22310         0.11543
C         15.83764        27.46689        -0.13972
C         14.58338        26.70914         0.24515
C         15.68661        28.89741        -0.49941
C         14.54178        29.58537        -0.19340
C         15.71727        31.75564        -0.56029
C         14.50260        31.03461        -0.33494
C         15.73282        33.17138        -0.45707
C         14.50193        33.87875        -0.26382
C         15.74354        35.99930        -0.09173
C         14.49611        35.28459        -0.13391
C         15.77024        37.38429         0.13122
C         14.50524        38.19414         0.06929
C         15.78887        40.19459         0.81991
C         14.52171        39.37268         1.03801
C         15.79140        41.57543         1.01279
C         14.54851        42.29873         1.36481
C         15.73283        44.46469         1.01531
C         14.49525        43.75303         1.18751
C         15.73429        45.88665         1.06645
C         14.50345        46.63808         1.08463
C         15.69811        48.81439         1.26177
C         14.48184        48.01047         1.08424
C         15.78426        50.20340         0.80823
C         18.26190        10.44714         1.21056
C         18.24992        11.80432         0.95395
C         17.02833        12.49275         0.57227
C         18.21977        14.60991         0.25359
C         16.99957        13.82445         0.25155
C         18.21727        15.95896        -0.10841
C         16.98255        16.59913        -0.72268
C         18.24027        18.80065        -0.70512
C         16.97439        18.10932        -0.65570
C         18.27448        20.18956        -0.87260
C         17.02760        20.95590        -1.20181
C         18.30810        23.09943        -0.61492
C         17.04231        22.32115        -0.50108
C         18.27775        24.56172        -0.75941
C         17.00801        25.23548        -0.52253
C         18.14344        27.36703        -1.01945
C         17.02935        26.70176        -0.59235
C         18.12874        28.82364        -1.27338
C         16.84819        29.59631        -1.10993
C         18.11482        31.73763        -1.19076
C         16.93778        31.06694        -0.93205
C         18.27111        33.16480        -0.70476
C         16.95822        33.89559        -0.54074
C         18.19241        36.03098        -0.40015
C         16.96672        35.27537        -0.30018
C         18.21094        37.42533        -0.10777
C         16.99095        38.10240         0.21128
C         18.24772        40.21995         0.45851
C         17.00012        39.50736         0.48872
C         18.25991        41.63414         0.68274
C         16.99853        42.33675         0.86740
C         18.25260        44.47692         0.60832
C         16.96023        43.73992         0.89478
C         18.19597        45.91773         1.02830
C         16.99368        46.58083         1.16040
C         18.26739        48.74850         1.00362
C         16.99259        48.04593         1.41646
C         18.24444        50.25110         1.09573
C         16.99880        50.90974         0.77246
C         18.28185        52.94377         0.20736
C         17.05606        52.27102         0.36171
C         18.31757        54.27393        -0.28148
C         20.99060         6.32423         0.57865
C         20.85279         7.67219         1.00567
C         19.66242         8.36548         0.92345
C         20.73412        10.48153         1.77444
C         19.45703         9.65020         1.68662
C         20.70502        11.96914         1.48271
C         19.45639        12.60060         1.00971
C         20.68638        14.70121         0.65475
C         19.45174        13.94249         0.64198
C         20.65303        16.04463         0.29859
C         19.44262        16.71096        -0.11188
C         20.76373        18.75474        -0.81684
C         19.45867        18.06717        -0.49577
C         20.71092        20.25521        -0.80418
C         19.51181        20.93176        -0.90427
C         20.70596        23.11165        -1.14510
C         19.52704        22.38028        -0.99232
C         20.68924        24.54861        -1.27416
C         19.41790        25.22747        -1.16181
C         20.65681        27.42391        -1.36338
C         19.35484        26.66800        -1.58229
C         20.63679        28.86684        -1.34379
C         19.40895        29.54782        -1.31133
C         20.68058        31.75115        -1.68777
C         19.34838        30.99249        -1.56789
C         20.66895        33.27257        -1.70002
C         19.35588        34.00302        -1.39770
C         20.34815        36.32617        -1.39806
C         19.31086        35.45049        -1.03743
C         20.58548        37.54472        -0.73519
C         19.44167        38.14708        -0.15413
C         20.71288        40.25821         0.13712
C         19.46861        39.54758         0.18494
C         20.71364        41.65092         0.48778
C         19.48633        42.31668         0.74633
C         20.74933        44.51570         1.03495
C         19.45408        43.75216         1.23790
C         20.74979        45.87665         1.16860
C         19.46704        46.56955         1.41399
C         20.74941        48.78792         1.75001
C         19.45891        48.04444         1.61975
C         20.71224        50.30572         1.52228
C         19.45156        50.95273         1.09115
C         20.77630        52.92164         0.39138
C         19.51545        52.28989         0.59664
C         20.82135        54.17922        -0.45607
C         19.53531        54.97796        -0.45197
C         20.76180        57.18527        -0.55340
C         19.53436        56.33812        -0.68809
C         20.79426        58.32643        -1.52209
C         23.40440         3.47937         0.97875
C         22.23115         4.16827         0.68787
C         23.38511         6.26508         1.18210
C         22.18979         5.58077         0.80456
C         23.33233         7.76101         1.09192
C         22.04477         8.30052         1.71299
C         23.21464        10.53788         1.64421
C         22.03340         9.81015         1.66402
C         23.18408        11.97117         1.50996
C         21.99281        12.64160         1.26403
C         23.16069        14.75708         0.89616
C         21.95854        14.05299         0.94632
C         23.15739        16.16704         0.70891
C         21.87508        16.84250         0.47398
C         23.25803        18.87011        -0.24492
C         21.91536        18.25305         0.02896
C         23.23876        20.35173        -0.35727
C         21.94860        21.03422        -0.65268
C         23.15857        23.13140        -1.23370
C         21.96814        22.44000        -1.09328
C         23.15431        24.56047        -1.43674
C         21.88916        25.26116        -1.43274
C         23.10134        27.45431        -1.48418
C         21.86771        26.72793        -1.44586
C         23.12318        28.84573        -1.31933
C         21.88947        29.60252        -1.30014
C         23.12526        31.75173        -1.07895
C         21.91393        31.01967        -1.33664
C         23.16722        33.15032        -1.10872
C         22.00423        33.92685        -1.53285
C         23.40730        36.08785        -1.69180
C         22.18360        35.25048        -1.82319
C         23.24055        37.49480        -1.00671
C         21.96491        38.07040        -0.35021
C         23.15129        40.29035        -0.06864
C         21.94422        39.58867        -0.17213
C         23.15048        41.66073         0.31247
C         21.96096        42.35785         0.57768
C         23.19863        44.46644         1.09824
C         21.99715        43.78397         0.88532
C         23.25023        45.89068         1.24255
C         22.00583        46.69139         0.91672
C         23.19097        48.81108         1.58140
C         22.01060        48.08604         1.52801
C         23.17462        50.25051         1.55927
C         21.99318        50.96302         1.25664
C         23.32388        52.88607         0.32071
C         21.98378        52.27667         0.69780
C         23.27492        54.38557         0.08030
C         22.05601        55.02063        -0.24119
C         23.25943        57.06729        -0.80013
C         22.03772        56.38464        -0.55679
C         23.25412        58.34108        -1.45228
C         22.00441        58.91576        -1.89193
C         23.26081        60.74040        -2.94036
C         22.04795        60.11397        -2.67010
C         24.55794         4.16413         1.38139
C         25.81341         6.27996         1.95082
C         24.56325         5.57079         1.46704
C         25.84021         7.77178         1.66251
C         24.57597         8.48389         1.54413
C         25.75518        10.63563         1.58934
C         24.51953         9.85837         1.63728
C         25.74623        11.99352         1.53722
C         24.45971        12.77015         1.70664
C         25.66245        14.85654         1.25057
C         24.48120        14.00843         0.81048
C         25.43524        16.18257         1.46120
C         24.33235        16.89133         0.86825
C         25.76147        19.06595         0.28584
C         24.51219        18.23829         0.27701
C         25.69855        20.39085        -0.29170
C         24.51596        21.02376        -0.62919
C         25.70644        23.13920        -1.40392
C         24.43803        22.37632        -1.22697
C         25.63600        24.61644        -1.50956
C         24.37468        25.26823        -1.54509
C         25.64462        27.46411        -1.59446
C         24.35690        26.73222        -1.90700
C         25.60001        28.87809        -1.40018
C         24.38574        29.54379        -1.23940
C         25.64378        31.69317        -0.79326
C         24.34374        30.93981        -0.65894
C         25.60370        33.13166        -0.31217
C         24.39488        33.90183        -0.84707
C         25.76384        36.00761        -0.90067
C         24.49975        35.25883        -1.05801
C         25.73456        37.51663        -0.90508
C         24.39869        38.17686        -0.78532
C         25.71850        40.33127        -0.53385
C         24.45895        39.52039        -0.07588
C         25.71076        41.76370         0.01412
C         24.41924        42.44373         0.36248
C         25.73584        44.46831         1.10241
C         24.46649        43.65664         1.27259
C         25.70568        45.83565         1.33663
C         24.45474        46.56980         1.40648
C         25.72592        48.77862         1.72569
C         24.47966        48.07790         1.18625
C         25.73970        50.28579         1.66316
C         24.43863        51.02247         1.65018
C         25.70432        53.21990         1.24478
C         24.33110        52.53223         1.42503
C         25.73742        54.56678         0.58248
C         24.46889        55.12813         0.06016
C         25.74595        57.08319        -0.79747
C         24.48901        56.42727        -0.49261
C         25.71622        58.34435        -1.41842
C         24.49080        58.97154        -1.77535
C         24.46987        60.19448        -2.50141
C         27.01482         8.45749         1.63481
C         28.26814        10.68076         1.71043
C         27.04817         9.91546         1.25581
C         28.29062        12.04803         1.62548
C         27.02262        12.74955         1.17852
C         28.29892        14.99768         1.50416
C         26.96093        14.22051         1.57045
C         28.36109        16.41017         1.02854
C         27.26650        17.28938         1.19982
C         28.23779        19.07423        -0.14493
C         27.04573        18.48419         0.47444
C         28.20894        20.37892        -0.50555
C         26.97250        21.20166        -0.19284
C         28.13113        23.18460        -1.12101
C         26.96894        22.52138        -0.93085
C         28.11092        24.55781        -1.68608
C         26.84271        25.32627        -1.60672
C         28.14333        27.46096        -1.52223
C         26.86479        26.75869        -1.62285
C         28.15218        28.85674        -1.28973
C         26.88892        29.65609        -1.56341
C         28.10941        31.70687        -0.73798
C         26.85123        31.04576        -0.96452
C         28.16413        33.09676        -0.49492
C         26.88919        33.86043        -0.75071
C         28.22184        35.97420        -0.33963
C         26.90166        35.28822        -0.20903
C         28.26669        37.46162        -0.53164
C         26.94699        38.19188        -0.37377
C         28.22297        40.23992         0.08668
C         26.96908        39.54391        -0.14829
C         28.22715        41.72979        -0.07832
C         26.96337        42.40984         0.40252
C         28.22086        44.45669         0.78470
C         26.97518        43.76881         0.78269
C         28.27605        45.84554         1.24521
C         26.98540        46.55098         1.55679
C         28.29463        48.76409         1.39630
C         27.02995        48.04599         1.69511
C         28.29715        50.27259         1.60931
C         26.97727        50.93277         1.07879
C         28.28093        53.13614         0.90756
C         26.99555        52.44075         1.31850
C         28.21049        54.46767         0.29841
C         27.01544        55.13762         0.07992
C         26.96796        56.40617        -0.55207
C         29.50959        12.81851         1.60322
C         30.72841        14.86258         0.93900
C         29.53652        14.18856         1.32603
C         30.72880        16.18322         0.44336
C         29.49420        16.90212         0.35689
C         30.72454        18.84900        -0.88683
C         29.36775        18.12885        -0.53994
C         30.69476        20.35715        -0.72999
C         29.41400        21.05983        -1.10968
C         30.67503        23.22674        -1.08329
C         29.41426        22.53437        -0.65851
C         30.66794        24.58791        -1.42341
C         29.40787        25.30043        -1.76856
C         30.60840        27.46004        -1.52350
C         29.38443        26.77343        -1.61111
C         30.61897        28.83234        -1.17649
C         29.37120        29.50260        -1.02441
C         30.64307        31.64028        -0.41697
C         29.34531        30.91558        -0.59454
C         30.67534        33.13352        -0.65969
C         29.36597        33.80055        -0.35243
C         30.64414        35.88745         0.10524
C         29.40089        35.23901        -0.20736
C         30.59680        37.29009         0.55362
C         29.35129        38.08119         0.31906
C         30.66688        40.20970         0.57778
C         29.40331        39.56048         0.30629
C         30.68183        41.66470         0.64604
C         29.49454        42.38285         0.39441
C         30.68512        44.49636         0.80929
C         29.46450        43.78424         0.59289
C         30.68519        45.94333         0.83477
C         29.49900        46.63516         1.00122
C         30.67190        48.81494         0.70909
C         29.45206        48.08605         1.05757
C         30.65635        50.17565         0.63853
C         29.48100        50.95741         0.94742
C         29.44172        52.27489         0.60460
C         31.94660        16.90774         0.17887
C         33.14887        19.01477        -0.22344
C         31.95228        18.23220        -0.23110
C         33.14967        20.38961        -0.47987
C         31.86832        21.06800        -0.67410
C         33.10685        23.19734        -1.01998
C         31.87683        22.51411        -0.89450
C         33.08032        24.56835        -1.32119
C         31.88631        25.27288        -1.53850
C         33.10874        27.44785        -1.32377
C         31.89499        26.74459        -1.92479
C         33.10281        28.87241        -1.19841
C         31.88833        29.55597        -1.11864
C         33.07456        31.66407        -0.59433
C         31.91028        30.95703        -0.76656
C         33.00818        32.85463         0.36161
C         31.86813        33.78803        -0.00270
C         32.95796        35.80042         1.11741
C         31.83612        35.13330         0.31711
C         33.04549        37.30318         0.88434
C         31.86816        38.02017         0.73945
C         33.07896        40.13657         1.18537
C         31.83293        39.46186         0.76929
C         33.09525        41.62786         1.37143
C         31.87250        42.37893         0.98859
C         33.15115        44.54158         1.35824
C         31.88433        43.78377         0.99302
C         33.12424        45.96121         0.85014
C         31.96117        46.63380         0.68490
C         31.92528        48.08528         0.27031
C         34.36179        21.15456        -0.52624
C         35.60268        23.28528        -0.89124
C         34.38040        22.51835        -0.81558
C         35.63979        24.62816        -1.23997
C         34.35224        25.30757        -1.62580
C         36.01921        27.75363        -1.97527
C         34.18260        26.64447        -0.94030
C         35.69858        28.94670        -1.33735
C         34.37304        29.65822        -1.60584
C         35.61713        31.78521        -0.67642
C         34.35268        31.09938        -1.07432
C         35.56743        33.03816         0.06734
C         34.32377        33.60325         0.56136
C         35.55903        35.85066         0.81616
C         34.29872        35.06951         0.94791
C         35.54943        37.26344         0.99684
C         34.31641        37.98898         0.99952
C         35.58964        40.09415         1.02110
C         34.35219        39.39486         1.05374
C         35.60161        41.59189         0.76688
C         34.45055        42.35853         1.45994
C         34.35229        43.75776         0.93759
C         36.84038        25.41910        -1.19507
C         38.08572        27.45278        -0.69957
C         36.98927        26.80518        -1.36219
C         37.99355        28.77003        -0.27392
C         36.66863        29.51541        -0.32845
C         37.98617        31.62430         0.23634
C         36.93673        31.01665        -0.68215
C         37.99487        32.97541         0.50829
C         36.84296        33.82455         0.03514
C         38.00436        35.83357         0.99245
C         36.77037        35.17858         0.68171
C         38.00032        37.22205         1.18887
C         36.79355        37.96342         1.09362
C         36.78277        39.38803         1.07517
C         39.09770        29.42568         0.34151
C         40.22728        31.43963         1.25098
C         39.10138        30.79629         0.62554
C         40.25867        32.79238         1.45595
C         39.14350        33.62880         1.09109
C         39.17335        35.01780         1.21062
O          9.53304        30.34989         1.60824
O         26.09840        36.76044        -2.10996
O         17.24058        29.12974        -2.44764
O         34.46983        34.05349         2.00751
O         32.90128        40.76580         2.54267
O         27.86434        52.96493         2.33037
O         25.75330        54.42876         2.05119
O         24.98880        42.69631        -0.92750
O         13.89062        41.79011         2.57719
O         16.35464        48.54592         2.59697
O         19.25350        47.19180         2.76700
O         20.68471        49.71535         2.86710
O         17.86749        22.46071         0.69168
O         19.98380        31.26613        -2.87246
O         25.86903        40.45720        -1.92224
O         27.76358        45.93949         2.63943
O         19.76979        33.74434        -2.75300
O         26.33741        48.36998         2.98103
O         26.33938        16.97158         2.18969
O         20.62293        11.44618         2.87852
O         15.51662        27.20676         1.28503
O         25.21261        50.82592         2.90484
O         21.64329        17.99856         1.41870
O         35.04465        31.96604        -2.08291
O         29.56567        37.48913         1.62838
O         22.48992        20.94358         0.76659
O         25.11289        22.43614        -2.55511
O         28.78833        24.75242        -2.98507
O         21.16877        35.95981        -2.47084
O         24.07617        18.16152        -1.19452
O         27.62671        14.67103         2.76881
O         29.95867        31.15355         0.75717
O         13.84782        24.52479         1.17723
O         24.53471        48.16271        -0.23225
O         17.05464        16.26592        -2.15688
H         16.76412        15.32623        -2.24446
O         10.71844        33.00079        -1.99831
H         10.71155        33.91173        -2.36262
O         24.29676        26.74816        -3.39350
H         24.96635        26.10815        -3.71934
O         21.11590        18.36012        -2.18805
H         20.36655        18.60184        -2.77357
O         32.56371        35.68416         2.51039
H         33.08321        34.94455         2.90239
O         26.83261        33.99271        -2.19111
H         26.84475        33.09585        -2.58853
O         36.83148        42.17298         1.18585
H         36.71046        42.42114         2.13045
O         15.06605        22.72149        -2.47739
H         14.27822        22.91901        -3.03851
O         14.49228        38.80585        -1.26378
H         14.52021        38.08405        -1.92644
O         17.15412        21.16564        -2.63682
H         16.36663        21.68816        -2.93560
O         27.10411        12.76062        -0.27914
H         27.14075        11.81096        -0.56221
O         26.65472        35.27957         1.22549
H         27.05347        36.08495         1.62043
O         12.84232        23.65115        -2.32130
H         11.89362        23.90201        -2.29577
O         34.85842        26.83419         0.21078
H         34.70388        27.73410         0.57794
O         23.21757         8.08037        -0.33755
H         23.88520         7.54926        -0.81975
O         23.76849        52.26700        -0.91022
H         23.11447        52.49353        -1.60788
O         18.46524        44.44915        -0.83305
H         17.78156        45.00766        -1.25799
O         37.11549        34.11928        -1.38868
H         37.34152        33.26515        -1.82529
O         18.42374        48.49736        -0.43703
H         17.78716        49.06670        -0.91999
O         19.15394        26.64891        -3.03654
H         18.94752        27.56642        -3.32099
O         24.69884        39.20521         1.33154
H         23.94732        38.64027         1.62888
O         15.42764        13.99815        -1.52499
H         14.58218        14.39565        -1.82093
O         14.56294        38.88356         2.39981
H         14.45015        39.66600         2.98606
O         20.97678        53.67456        -1.83687
H         20.12434        53.26079        -2.09221
O         24.59734        13.55635        -0.55730
H         24.71748        14.33686        -1.13627
O         33.18714        44.64813         2.82881
H         33.74521        43.90168         3.16513
O         23.73267        53.05633         2.62292
H         24.32429        52.82613         3.37231
O         15.35007        22.58377         1.12067
H         16.13379        22.72219         1.69857
O         26.90158        50.73975        -0.35524
H         26.28041        50.00533        -0.56265
O         21.97854         7.91926         3.10849
H         21.09010         8.19379         3.43586
O         24.47897        43.14900         2.64222
H         24.59485        43.91063         3.24916
O         34.36860        25.41203        -3.06897
H         33.51005        25.79622        -3.37827
O         19.17345         9.24011         3.07288
H         19.28696        10.05563         3.61499
O         29.31946        21.02157        -2.55233
H         29.73955        20.17952        -2.85170
O         28.07041        41.99994        -1.51580
H         27.26796        41.46142        -1.84349
O         25.47283        33.07576         1.13529
H         26.36757        32.97566         1.52456
O         30.96247        18.68808        -2.32143
H         30.67591        17.78084        -2.56931
O         31.96469        26.78805        -3.38405
H         31.93985        27.73068        -3.65476
O         32.64953        32.25462         1.64048
H         33.00074        32.84603         2.34545
O         26.96179        29.92605        -3.01440
H         26.85990        29.06860        -3.48125
O         34.80793        42.42139         2.88686
H         34.32970        41.66166         3.30854
O         22.12130        37.56493         1.04221
H         21.33020        37.84892         1.55082
O         29.48478        22.58338         0.79085
H         28.60913        22.30636         1.16615
O         13.60695        29.03089         1.92902
H         14.36800        28.43330         2.13457
O         24.41526        13.25839         3.07552
H         24.31135        12.48948         3.67398
O         35.55222        27.47943        -3.20045
H         34.95194        28.21987        -3.47750
O         20.69051        57.79437         0.80322
H         20.91240        57.09552         1.45532
O         37.49590        31.09353        -2.01234
H         36.73545        31.21656        -2.62937
O         22.09197        46.95616        -0.52059
H         22.99525        47.38883        -0.65522
O         19.19385        43.70177         2.66473
H         19.98934        43.34909         3.11431
O         34.18120        29.75557        -3.06073
H         34.49008        30.65761        -3.32067
O         18.83357        33.02120         0.65781
H         18.12216        32.68516         1.24425
O         12.62359        46.20701        -0.30793
H         11.83312        45.64304        -0.43540
O         27.03555        21.55731         1.24404
H         26.97729        20.72329         1.75959
O         27.12031         9.93822        -0.23277
H         26.29210         9.52563        -0.56121
O         28.67989        37.66207        -1.92130
H         27.89414        37.42886        -2.47640
O         28.36751        50.46416         3.03316
H         27.63606        49.94595         3.44381
O         25.92046         6.08559         3.37525
H         25.11346         6.45386         3.79129
O         36.06437        29.46694         0.99771
H         36.74520        29.73396         1.65200
O         28.89824        17.53030        -1.79677
H         27.98019        17.21506        -1.65584
O         23.79141        36.36345        -3.06779
H         22.98199        36.65733        -3.53927
O         32.01925        48.16056        -1.17074
H         31.23044        47.72237        -1.55128
O         30.85771        33.25705        -2.11769
H         30.78928        34.20779        -2.34990
O         24.18115        30.70833         0.78660
H         24.43145        31.55590         1.23638
H          4.89575        31.17113        -0.03659
H          4.86221        33.63806        -0.05555
H          7.43190        26.88928        -0.29173
H          6.14600        29.04278        -0.05485
H          6.10752        35.82138         0.04801
H          7.36538        37.94761         0.23728
H          9.94813        22.60372        -0.02048
H          8.66431        24.77229        -0.26761
H          8.61475        40.06450         0.45406
H          9.83696        42.18237         0.72285
H         12.40544        18.36112        -0.06128
H         11.21353        20.46194        -0.07068
H         11.09942        44.29313         1.07549
H         12.48354        46.33743         1.77563
H         14.85643        14.10435         0.49318
H         13.61705        16.20741         0.16252
H         13.52088        48.53424         0.96895
H         14.86333        50.70361         0.47404
H         17.31066         9.89537         1.14837
H         16.09606        11.90828         0.54308
H         16.12281        52.78988         0.09914
H         17.36767        54.80961        -0.42915
H         20.10765         5.79946         0.18193
H         18.78886         7.89698         0.44379
H         18.56700        56.86271        -0.74641
H         19.84443        58.76669        -1.86123
H         23.42637         2.38330         0.90056
H         21.32568         3.62118         0.38884
H         23.26959        61.67648        -3.51649
H         21.10565        60.55721        -3.02230
H         25.47302         3.60464         1.62140
H         26.71743         5.79718         1.49868
H         26.66394        58.83769        -1.68151
H         25.41941        60.69373        -2.74122
H         27.96989         7.92219         1.75079
H         29.18923        10.11958         1.93251
H         29.14081        54.89481        -0.10854
H         27.91175        56.88443        -0.85568
H         30.46236        12.26509         1.60799
H         31.67868        14.30740         0.96426
H         31.55547        50.71105         0.29684
H         30.30960        52.73352         0.10496
H         32.89779        16.43302         0.46720
H         34.09408        18.51912         0.04928
H         34.08446        46.48958         0.74505
H         32.82642        48.61577         0.66776
H         35.31448        20.62636        -0.36466
H         36.54586        22.76692        -0.65416
H         35.51509        41.73717        -0.34631
H         35.29764        44.28298         0.72491
H         37.71575        24.91066        -0.75183
H         38.99019        26.86981        -0.46142
H         38.94361        37.75030         1.39176
H         37.73251        39.94220         1.06340
H         40.00648        28.83851         0.54712
H         41.08776        30.81882         1.54126
H         41.14419        33.26173         1.90906
H         40.09327        35.50695         1.56550
