         349
 CSIRO Nanostructure Databank - Neutral Graphene Oxide Data Set
C          1.46784         1.89517         1.02903
C          1.38873         3.29167         0.95506
C          2.69525         1.25342         0.94078
C          2.55115         4.06951         0.79910
C          1.33448         6.30081         1.37211
C          1.38688         7.61526         1.65903
C          2.46368         5.56419         0.73875
C          2.63995         8.41536         1.55806
C          1.34515        10.68547         1.49199
C          1.32291        12.02379         1.36978
C          2.61949         9.92578         1.57809
C          2.59644        12.84856         1.34332
C          1.25766        14.97941         0.88007
C          1.20878        16.34827         0.61051
C          2.45900        14.26335         0.80094
C          2.38611        17.06322         0.32871
C          2.38241        18.49541         0.17882
C          3.88572         2.00447         0.75474
C          3.79719         3.42699         0.67176
C          5.14154         1.33744         0.62549
C          5.10173         4.18733         0.68278
C          3.71801         6.33130         0.48771
C          3.83869         7.74895         0.94497
C          5.00405         5.63459         0.29294
C          4.98472         8.53277         0.40901
C          3.85184        10.64873         1.11174
C          3.65999        12.05576         0.54534
C          5.00555         9.89367         0.57095
C          4.96051        12.81216         0.36698
C          3.64683        14.94036         0.42548
C          3.61961        16.35432         0.23228
C          4.89694        14.22929         0.25496
C          4.83442        17.08216         0.02969
C          3.54510        19.19385         0.02495
C          4.81757        18.51904        -0.02304
C          6.30807         2.00296         0.16467
C          6.25625         3.46567         0.02541
C          7.42111         1.30168        -0.28702
C          7.31028         4.15942        -0.48429
C          6.10314         6.36130        -0.11131
C          6.12555         7.80486        -0.13562
C          7.24874         5.62215        -0.68625
C          7.30527         8.50051        -0.48355
C          6.30310        10.64818         0.42438
C          6.15497        12.13037         0.13141
C          7.22485        10.00515        -0.60529
C          7.33465        12.83142        -0.27326
C          6.08574        14.94541        -0.04749
C          6.06580        16.39203        -0.07653
C          7.27882        14.24233        -0.34612
C          7.27929        17.12670        -0.14415
C          6.01798        19.23289        -0.08937
C          7.27127        18.56228        -0.11047
C          8.46458         1.99232        -1.13130
C          8.63277         3.45348        -0.65892
C          9.80380         1.31477        -1.05796
C          9.70930         4.19845        -1.46848
C          8.52670         6.40051        -1.02209
C          8.52801         7.84661        -0.76774
C          9.78653         5.67190        -1.14339
C          9.77780         8.54754        -0.77416
C          8.56193        10.70757        -0.57672
C          8.56055        12.10176        -0.53847
C          9.77054         9.95951        -0.64684
C          9.82306        12.78875        -1.04269
C          8.49082        15.02370        -0.65606
C          8.52131        16.44312        -0.26336
C          9.80219        14.30820        -0.89318
C          9.73801        17.12195        -0.16049
C          8.50154        19.25448        -0.11565
C          9.74298        18.57122        -0.05907
C         11.00562         2.04136        -1.11255
C         11.01396         3.47586        -1.24353
C         12.25151         1.36133        -0.99320
C         12.22435         4.19123        -1.25869
C         11.00457         6.36854        -1.17911
C         11.02768         7.82838        -1.00231
C         12.22221         5.63679        -1.30543
C         12.24117         8.51998        -1.07189
C         11.03277        10.66950        -0.38612
C         11.08977        12.13124        -0.52573
C         12.34306         9.89959        -0.57086
C         12.29204        12.79004        -0.48097
C         11.02411        15.02289        -0.49235
C         10.97830        16.37450        -0.18968
C         12.30723        14.27315        -0.57227
C         12.17144        17.05857         0.35024
C         10.95818        19.28336        -0.00568
C         12.19012        18.63152         0.40737
C         13.47519         2.05054        -1.06433
C         13.45490         3.46348        -1.27307
C         14.70895         1.35392        -0.81622
C         14.70564         4.19135        -1.44514
C         13.46844         6.35190        -1.61334
C         13.45437         7.89212        -1.63068
C         14.73633         5.64702        -1.47993
C         14.76431         8.71503        -1.76971
C         13.59264        10.67954        -0.68471
C         13.56980        12.07852        -0.42511
C         14.80176        10.01148        -0.97228
C         14.80732        12.78223        -0.33774
C         13.58160        14.98859        -0.26271
C         13.49105        16.34881         0.35700
C         14.85370        14.23175        -0.10748
C         14.76058        17.12221         0.53936
C         13.49360        19.28159         0.36871
C         14.73404        18.60633         0.40722
C         15.92920         2.01289        -0.70480
C         15.99742         3.43887        -1.10780
C         17.14996         1.35752        -0.39698
C         17.11862         4.27551        -0.59650
C         16.03152         6.33547        -1.59489
C         16.05022         7.86620        -1.65230
C         17.22764         5.67864        -1.02166
C         17.30376         8.53563        -1.25173
C         16.01891        10.71486        -0.87358
C         16.01934        12.07882        -0.49760
C         17.29378        10.02280        -1.23486
C         17.30159        12.88258        -0.60474
C         16.02046        14.92716         0.06641
C         16.04909        16.38440         0.33332
C         17.33549        14.19334         0.20625
C         17.28828        17.16581         0.06580
C         15.92767        19.29442         0.17687
C         17.16748        18.62339        -0.35325
C         18.37588         2.04189        -0.25724
C         18.37693         3.52241        -0.17551
C         19.58944         1.37474        -0.07387
C         19.63022         4.27729        -0.18829
C         18.40959         6.37176        -0.78719
C         18.45605         7.81761        -0.99828
C         19.59202         5.64795        -0.31906
C         19.77690         8.50993        -0.97418
C         18.59068        10.73685        -1.04409
C         18.55398        12.04956        -0.29445
C         19.85087         9.97012        -0.87637
C         19.78505        12.86630        -0.64032
C         18.58751        14.98233        -0.20329
C         18.52235        16.45852        -0.38301
C         19.76179        14.33405        -0.43005
C         19.79430        17.27340        -0.40124
C         18.46713        19.36528        -0.13018
C         19.69527        18.77059        -0.17975
C         20.83073         2.04717         0.15051
C         20.96506         3.54702        -0.08712
C         21.94449         1.32179         0.50219
C         21.87586         4.20382         0.97484
C         20.80696         6.41776         0.05799
C         21.02489         7.76108        -0.53202
C         21.99931         5.71547         0.67979
C         22.20670         8.51395        -0.07435
C         21.03436        10.62182        -0.58839
C         21.07819        12.10460        -0.70284
C         22.24136         9.91415        -0.20794
C         22.29757        12.83509        -0.31318
C         21.07255        15.05575        -0.74346
C         21.03346        16.46969        -0.18621
C         22.26248        14.24801        -0.19199
C         22.04682        16.93272         0.56953
C         20.90877        19.59094        -0.28933
C         22.10223        19.15541         0.25314
C         23.23681         1.94949         0.84294
C         23.24028         3.49038         1.04309
C         24.48861         1.31702         0.46082
C         24.50136         4.16082         0.76278
C         23.29562         6.38389         0.50546
C         23.36282         7.76719         0.32804
C         24.58195         5.61662         0.39508
C         24.63599         8.46810         0.49293
C         23.43489        10.63749         0.12826
C         23.43223        12.08705         0.09832
C         24.63100         9.92700         0.46190
C         24.60215        12.79309         0.46800
C         23.40156        14.90095         0.29584
C         23.39147        16.32898         0.75850
C         24.61133        14.19915         0.49823
C         24.52174        17.13684         0.08416
C         23.44878        19.50082        -0.05135
C         24.58487        18.64464         0.04851
C         25.68938         1.99950         0.56852
C         25.69682         3.44311         0.73477
C         26.94231         1.32740         0.32799
C         26.96261         4.15322         0.72762
C         25.70579         6.30471         1.19112
C         25.78317         7.77125         0.83269
C         27.01024         5.56119         0.94247
C         26.99484         8.49051         1.36805
C         25.82008        10.61980         0.78301
C         25.80042        12.07917         0.88445
C         27.07612         9.93423         0.89718
C         27.11723        12.86982         0.93382
C         25.86043        14.93165         0.44512
C         25.80987        16.35479        -0.00999
C         27.06203        14.26225         0.46739
C         27.09995        17.07513        -0.07934
C         25.84931        19.22451        -0.12103
C         27.08929        18.50519        -0.14578
C         28.14257         1.99275         0.37894
C         28.17774         3.42463         0.63141
C         29.40046         1.31194         0.09986
C         29.41388         4.09347         0.72726
C         28.22904         6.23176         0.96190
C         28.34701         7.69789         1.35227
C         29.45800         5.50858         0.81058
C         29.46096         8.34433         0.54284
C         28.26871        10.61077         0.70777
C         28.43359        12.09891         0.94298
C         29.47880         9.84484         0.35755
C         29.54615        12.76790         0.17343
C         28.24370        14.86148        -0.25510
C         28.29716        16.36084        -0.11710
C         29.55153        14.14223        -0.02069
C         29.54121        17.03395        -0.23788
C         28.31979        19.17533        -0.25489
C         29.54294        18.46523        -0.30263
C         30.58885         1.91835         0.27993
C         30.67593         3.28558         0.90306
C         31.90633         4.05292         0.51360
C         30.72228         6.19675         0.68800
C         30.76201         7.62288         0.56750
C         31.91492         5.40938         0.48781
C         31.92505         8.35594         0.34440
C         30.77312        10.52407         0.17640
C         30.77878        11.98933        -0.21787
C         31.91827         9.76380         0.13602
C         32.02270        12.77235         0.11768
C         30.78116        14.86262        -0.16694
C         30.77948        16.30100        -0.29968
C         32.00438        14.13016         0.05935
C         31.97364        17.03148        -0.45786
C         30.78437        19.14820        -0.44452
C         31.96824        18.43317        -0.52933
O         14.09121        16.48332         1.67886
O          7.52954         6.01630        -2.05592
O         26.36436        12.61941         2.14840
O         24.93371        16.55414        -1.19034
O         21.04909         6.48243         1.49937
O         13.12614        14.89019        -1.65323
O         11.74792        10.10836         0.76109
O         20.39608        12.55550        -1.93840
O          3.70374         7.86628         2.40490
O         23.29314         2.57798         2.17651
O         13.25186         7.15963        -2.87144
O         29.13622         8.87994        -0.75501
O          2.76357         6.10441        -0.61494
O          3.58800        10.48311         2.54887
O         11.93013        17.74394         1.57007
O         26.55432         8.58334         2.72746
O         15.65057         3.63622        -2.48306
O         16.98549        16.77960         1.43988
O         20.71757         7.91012        -1.94398
O         17.99300        10.68232        -2.37354
O         16.26138         7.06036        -2.86216
O          9.06267        14.89326        -2.02266
O         19.09241        16.91110        -1.65015
O         21.93645        18.15350         1.24483
O         17.40651         4.03746         0.80955
O          9.18435         3.40540         0.68829
H          8.55550         2.91062         1.25599
O          9.38168         4.11021        -2.89320
H         10.03913         4.64284        -3.38892
O          7.97632         1.90737        -2.49758
H          8.41885         2.61771        -3.02338
O         18.61640        11.65354         1.09061
H         18.32552        12.41446         1.65260
O         23.68135        16.32733         2.18138
H         23.26060        17.13300         2.55659
O         25.39646         6.23665         2.59306
H         25.78183         7.07532         2.99404
O         27.98324        14.60259        -1.68568
H         27.21578        15.15451        -1.95398
O         21.20004         4.03011         2.21732
H         21.80768         4.27074         2.94651
O         24.99569         5.70177        -1.00367
H         24.30083         5.28674        -1.55706
O          5.49173         4.23088         2.11376
H          5.40447         3.31789         2.46374
O          9.86317        12.50135        -2.47516
H          9.40708        13.25463        -2.92105
O          3.10954        11.88168        -0.79022
H          3.82640        11.56855        -1.38219
O         21.24717        15.12654        -2.16987
H         20.99639        14.24586        -2.53986
O          6.96045        10.54518         1.71748
H          6.28941        10.69650         2.41679
O         16.96991        18.59202        -1.80876
H         17.76409        18.13756        -2.18899
O          3.04710        13.05004         2.70152
H          3.19359        12.15456         3.09644
O         30.81399         3.05641         2.35592
H         30.72824         3.92782         2.79893
O         17.38636        13.31022        -1.98026
H         17.50085        12.50216        -2.53995
O         28.84143         7.68311         2.71039
H         28.05964         8.00117         3.25391
O         28.92313        12.14668         2.33068
H         28.12491        12.04444         2.90264
O         30.75113        11.92943        -1.70015
H         30.48579        12.81715        -2.02598
O         21.66135         3.72853        -1.35326
H         21.13869         3.29560        -2.06090
O         17.46100        13.93789         1.63469
H         17.34766        14.81023         2.08358
O          6.62025        10.27146        -1.90572
H          7.21514         9.91137        -2.59698
O         14.75689         9.21221        -3.12949
H         14.82707         8.42246        -3.71418
H          0.54888         1.30710         1.15945
H          0.40644         3.77804         1.02669
H          2.75527         0.15749         1.00089
H          0.39698         5.75414         1.55402
H          0.49635         8.10705         2.07910
H          0.40041        10.12178         1.52047
H          0.34748        12.53016         1.32655
H          0.32987        14.47217         1.17835
H          0.25203        16.88555         0.68117
H          1.41929        19.02461         0.22602
H          5.15788         0.23983         0.70077
H          3.52936        20.29073        -0.05354
H          7.42291         0.20159        -0.23963
H          5.99651        20.33281        -0.10002
H          9.84559         0.21524        -1.01621
H          8.49871        20.35429        -0.09235
H         12.25321         0.27445        -0.82423
H         10.96127        20.36796        -0.18866
H         14.65826         0.27776        -0.59621
H         13.50598        20.34513         0.08551
H         17.14879         0.26014        -0.31894
H         15.88115        20.39040         0.07898
H         19.58514         0.27527        -0.01848
H         18.41347        20.46328        -0.06931
H         21.87359         0.22417         0.56494
H         20.87364        20.48909        -0.92397
H         24.47305         0.28245         0.08725
H         23.63005        20.49849        -0.48257
H         26.92358         0.24631         0.12366
H         25.90463        20.32059        -0.21001
H         29.35164         0.28213        -0.28593
H         28.33523        20.27343        -0.31978
H         31.52823         1.38794         0.06318
H         32.84317         3.49417         0.36770
H         32.86098         5.92754         0.27607
H         32.90113         7.85159         0.32175
H         32.88592        10.24642        -0.06175
H         32.97314        12.24521         0.28345
H         32.93912        14.68508         0.22278
H         32.93503        16.50674        -0.53783
H         30.79133        20.24613        -0.49853
H         32.92120        18.96647        -0.65311
