         600
 CSIRO Nanostructure Databank - Neutral Graphene Oxide Data Set
C         23.21199        27.45950        -1.64623
C         23.09538        28.27931        -0.53516
C         22.92119        31.63449         1.11968
C         22.90063        33.02709         1.03767
C         22.97112        35.90969         0.25691
C         23.02010        37.23781         0.03172
C         23.02449        40.19463        -0.16084
C         23.05915        41.55995        -0.26955
C         23.06304        44.51088        -0.40302
C         23.06860        45.88509        -0.44772
C         25.90961        25.64638        -3.44251
C         24.66543        26.13920        -3.14205
C         25.65640        27.75719        -1.57204
C         24.49940        27.13898        -2.13559
C         25.52201        28.78214        -0.58140
C         24.24164        28.89990        -0.00884
C         25.36013        31.59903         0.69393
C         24.13327        30.95739         0.96827
C         25.33168        33.03483         0.76735
C         24.09439        33.73191         0.87930
C         25.36791        35.92547         0.89207
C         24.04376        35.23263         1.07224
C         25.36898        37.33429         0.80701
C         24.15345        38.04990         0.45332
C         25.30110        40.23717         0.79029
C         24.13784        39.44481         0.34259
C         25.39482        41.67116         0.46621
C         24.23498        42.33986         0.02612
C         25.45462        44.48492         0.15894
C         24.24288        43.77336        -0.08974
C         25.46721        45.91528         0.08167
C         24.26521        46.61861        -0.20344
C         25.44722        48.74008        -0.01688
C         24.28098        48.03895        -0.23798
C         28.49046        24.26132        -3.64349
C         28.34047        25.45074        -2.87783
C         27.07339        26.12413        -2.76575
C         28.09141        27.79261        -1.23768
C         26.94793        27.24024        -1.89355
C         27.96964        29.00157        -0.46198
C         26.68646        29.56196        -0.15988
C         27.82998        31.57692         0.67684
C         26.61552        30.87509         0.42352
C         27.77392        32.98471         1.13053
C         26.55541        33.76713         0.90781
C         27.83680        35.90463         1.02384
C         26.57946        35.18596         0.98069
C         27.82851        37.33706         0.97431
C         26.60805        38.03082         0.91144
C         27.87572        40.22785         0.97835
C         26.60534        39.48891         1.05051
C         27.85723        41.65269         0.89924
C         26.63314        42.36136         0.64553
C         27.88785        44.50329         0.59639
C         26.65780        43.77960         0.46857
C         27.89558        45.92748         0.51025
C         26.67924        46.64542         0.28862
C         27.91343        48.79150         0.43600
C         26.67693        48.07044         0.23372
C         27.98903        50.22688         0.26420
C         30.79674        23.98582        -2.89278
C         29.67136        23.55262        -3.64345
C         30.69905        25.21155        -2.17007
C         29.46151        25.93757        -2.15114
C         30.50764        27.70218        -0.77238
C         29.34762        27.14888        -1.39237
C         30.43416        28.97756        -0.14623
C         29.16584        29.64179        -0.01558
C         30.34063        31.66917         0.77698
C         29.09889        30.95637         0.52768
C         30.34651        33.05456         0.99902
C         29.09074        33.76768         1.25710
C         30.30060        35.93925         0.99444
C         29.06582        35.22611         1.09980
C         30.29048        37.34649         0.93302
C         29.07308        38.06774         0.99725
C         30.33565        40.22207         1.40279
C         29.07182        39.49608         1.02425
C         30.33217        41.68566         1.04544
C         29.10894        42.37359         0.91324
C         30.34906        44.51706         0.82496
C         29.11236        43.80152         0.78207
C         30.35051        45.94016         0.79392
C         29.11935        46.64478         0.65880
C         30.35182        48.78590         0.95814
C         29.09682        48.07347         0.66522
C         30.37205        50.30569         0.90121
C         29.14268        50.93385         0.40540
C         33.29557        21.21699        -3.42808
C         32.13102        21.95401        -3.49120
C         33.14233        23.71097        -2.13366
C         32.01686        23.21575        -2.84992
C         33.05310        24.96770        -1.44888
C         31.83022        25.70856        -1.45342
C         32.86807        27.53275        -0.14085
C         31.74271        26.98563        -0.79901
C         32.85914        28.86682         0.34609
C         31.62853        29.59838         0.32059
C         32.80970        31.66345         0.96579
C         31.59997        30.97711         0.70228
C         32.80749        33.08395         1.10265
C         31.56435        33.79727         1.02230
C         32.79624        35.92635         1.04607
C         31.55382        35.21435         1.02160
C         32.81786        37.33186         0.94006
C         31.55877        38.07488         0.58108
C         32.79422        40.20377         0.97591
C         31.59417        39.51546         0.99995
C         32.81098        41.65159         1.00592
C         31.57242        42.37794         0.98421
C         32.83122        44.50797         0.84302
C         31.58412        43.79972         0.88123
C         32.84975        45.92546         0.76434
C         31.60362        46.66353         0.77847
C         32.85038        48.79684         0.37122
C         31.61404        48.05301         0.79607
C         32.87624        50.27708         0.68931
C         31.69086        51.00381         0.80022
C         32.94694        53.09213         0.87699
C         31.74632        52.41894         0.91930
C         35.77692        19.64934        -3.27773
C         35.66731        20.93268        -2.68426
C         34.43887        21.69136        -2.73420
C         35.50847        23.49051        -1.41701
C         34.35861        22.95788        -2.08561
C         35.41925        24.75862        -0.75797
C         34.18370        25.44804        -0.73466
C         35.33413        27.36364         0.53615
C         34.05036        26.68753         0.03719
C         35.30818        28.81488         0.76970
C         34.07669        29.51138         0.76167
C         35.25058        31.61232         1.30355
C         34.07278        30.94376         1.01859
C         35.25091        33.06044         1.71995
C         34.01377        33.79912         1.29119
C         35.27960        35.91526         1.21718
C         34.03191        35.20386         1.21297
C         35.27864        37.31988         1.07980
C         34.04060        38.04169         0.97400
C         35.27324        40.17449         0.89042
C         34.04711        39.47393         0.90910
C         35.28295        41.62144         0.91629
C         34.04348        42.34445         0.93352
C         35.29757        44.48326         0.89147
C         34.05807        43.77746         0.88661
C         35.30391        45.89942         0.87160
C         34.09536        46.62953         0.78701
C         35.32989        48.77832         0.66375
C         34.11980        48.06853         0.71912
C         35.34850        50.21762         0.53443
C         34.13253        50.95948         0.63994
C         35.42589        53.07332         0.60412
C         34.17856        52.39102         0.72232
C         35.54582        54.50108         0.82911
C         38.12082        19.46134        -2.62027
C         36.96022        18.93872        -3.24410
C         38.04366        20.74598        -2.01262
C         36.81425        21.47952        -2.03955
C         37.91282        23.35346        -0.85527
C         36.73804        22.77111        -1.42481
C         37.86454        24.67921        -0.33553
C         36.61901        25.37086        -0.23946
C         37.80895        27.40415         0.49400
C         36.60587        26.69980         0.24993
C         37.77372        28.79578         0.86950
C         36.54207        29.47297         0.99616
C         37.78251        31.63831         1.34745
C         36.51872        30.85354         1.59406
C         37.76775        33.05216         1.35431
C         36.53586        33.78913         1.38155
C         37.77597        35.91084         1.14808
C         36.53010        35.18268         1.26127
C         37.76637        37.31445         0.97552
C         36.51523        38.04368         0.95327
C         37.74398        40.19636         0.46359
C         36.49495        39.43640         0.82520
C         37.78562        41.55922         1.14694
C         36.50521        42.33572         0.94734
C         37.79360        44.44889         0.80496
C         36.53370        43.74003         0.93245
C         37.81562        45.84723         0.70017
C         36.59654        46.63516         1.11646
C         37.74251        48.73282         0.30801
C         36.57608        48.07077         0.65453
C         37.78684        50.16167         0.16906
C         36.58592        50.89849         0.36406
C         37.84860        53.01450         0.10620
C         36.62245        52.33865         0.33748
C         37.79641        54.48983        -0.21847
C         36.68328        55.17264         0.53790
C         40.67747        16.72429        -3.09829
C         39.49462        17.44334        -3.18339
C         40.48664        19.26916        -1.89785
C         39.36173        18.71539        -2.57687
C         40.42259        20.57814        -1.32520
C         39.20398        21.31731        -1.38970
C         40.33523        23.24224        -0.33615
C         39.14593        22.63211        -0.84950
C         40.30275        24.60856         0.07308
C         39.07110        25.32847         0.06726
C         40.26844        27.40564         0.67847
C         39.04726        26.71020         0.42086
C         40.24826        28.82026         0.91354
C         39.01332        29.50728         1.03412
C         40.24500        31.64635         1.30030
C         39.00189        30.93250         1.22465
C         40.22417        33.05727         1.45344
C         39.01647        33.76474         1.36116
C         40.24573        35.90992         1.18516
C         39.01868        35.21001         1.26034
C         40.24468        37.32216         0.96484
C         39.00410        38.02761         0.87129
C         40.23521        40.13960         0.67010
C         39.02413        39.43419         0.70805
C         40.22667        41.59048         0.59856
C         39.02908        42.30842         0.73492
C         40.24566        44.41546         0.40691
C         39.02101        43.71673         0.65041
C         40.23193        45.83294         0.22365
C         39.01267        46.51871         0.34887
C         40.22262        48.67403        -0.31516
C         38.94649        47.94626        -0.01351
C         40.24142        50.14265        -0.22763
C         39.02744        50.84968        -0.04491
C         40.31048        52.96291        -0.17770
C         39.06035        52.29109        -0.03801
C         40.39742        54.43749         0.12210
C         39.12545        55.20281        -0.14339
C         40.42053        57.24766        -0.44627
C         39.18908        56.57014        -0.32155
C         42.98353        16.44650        -2.22556
C         41.77951        17.22648        -2.37686
C         42.78937        19.03633        -1.02140
C         41.68977        18.51260        -1.77385
C         42.78625        20.37346        -0.58018
C         41.58814        21.15357        -0.73467
C         42.76520        23.14653         0.14883
C         41.55628        22.50607        -0.29202
C         42.71759        24.52188         0.49997
C         41.51539        25.26684         0.44917
C         42.70712        27.42775         0.80986
C         41.49607        26.69483         0.67955
C         42.72511        28.82596         0.90641
C         41.48767        29.54112         1.00590
C         42.74100        31.66827         1.28257
C         41.48399        30.94106         1.20715
C         42.74288        33.02927         1.51344
C         41.48003        33.78148         1.86777
C         42.69910        35.89380         1.27825
C         41.50802        35.22151         1.39259
C         42.72926        37.28890         0.81040
C         41.46401        38.03869         0.82755
C         42.72997        40.17613         0.73335
C         41.48110        39.43712         0.69597
C         42.70938        41.59064         0.64624
C         41.45560        42.29728         0.46873
C         42.77152        44.36546         0.04700
C         41.45989        43.69293         0.35369
C         42.71955        45.86505         0.06811
C         41.48724        46.54203         0.00329
C         42.69272        48.64298        -0.42507
C         41.49215        47.94513        -0.19624
C         42.68526        50.06761        -0.62122
C         41.46766        50.80933        -0.42396
C         42.73363        52.90558        -0.73955
C         41.49571        52.24276        -0.41600
C         42.75395        54.34499        -0.83383
C         41.61267        55.09908        -0.48249
C         42.82742        57.15769        -1.03095
C         41.62272        56.51208        -0.62121
C         43.98639        16.85324        -1.40590
C         45.20160        18.80761        -0.10229
C         43.90120        18.13436        -0.69849
C         45.18619        20.26147         0.01567
C         44.00258        20.99609        -0.08203
C         45.24218        23.10740         0.40225
C         44.00184        22.42117         0.18628
C         45.25691        24.51558         0.58197
C         43.97598        25.20053         0.83392
C         45.21410        27.40638         0.43875
C         43.97984        26.69284         0.92424
C         45.22069        28.84882         0.85733
C         43.99373        29.54414         0.97050
C         45.24231        31.65020         1.13430
C         43.99905        30.95100         1.14245
C         45.28187        33.08167         1.34390
C         44.01653        33.74799         1.67503
C         45.27423        35.97282         1.37194
C         43.99841        35.26324         1.59219
C         45.29076        37.38814         1.28021
C         44.03363        38.05161         0.86670
C         45.10069        40.21993         1.39474
C         43.96906        39.50991         0.95986
C         44.89791        41.59044         1.61169
C         43.85974        42.32536         1.02608
C         45.24720        44.58551         0.73780
C         43.92840        43.80246         0.86483
C         45.20386        45.88651         0.01593
C         43.94666        46.55848        -0.10799
C         45.11737        48.58922        -0.90141
C         43.92942        47.94127        -0.45288
C         45.07635        49.96769        -1.28357
C         43.87675        50.72012        -0.99715
C         44.99187        52.78644        -1.73348
C         43.87167        52.15394        -1.10120
C         44.96936        54.20117        -1.93797
C         43.90500        54.99745        -1.36763
C         43.92807        56.41890        -1.40394
C         47.67117        18.82784        -0.30254
C         46.49562        18.13442        -0.28274
C         47.73440        20.23491        -0.04823
C         46.47822        20.90597         0.45272
C         47.71191        23.07428         0.39198
C         46.49729        22.40392         0.32453
C         47.74136        24.49158         0.91248
C         46.46088        25.25042         0.68766
C         47.70603        27.37783         0.83012
C         46.48505        26.65714         0.73443
C         47.71491        28.79723         0.86568
C         46.45551        29.52480         0.91907
C         47.72026        31.65218         0.80969
C         46.45226        30.93404         0.99882
C         47.71972        33.15323         0.93460
C         46.45804        33.81788         1.29536
C         47.72568        35.97460         1.36859
C         46.48639        35.25861         1.41626
C         47.72556        37.40444         1.43152
C         46.48001        38.10816         1.43974
C         47.71855        40.32346         1.29018
C         46.44747        39.58993         1.78237
C         47.78330        41.73676         1.06145
C         46.74390        42.66064         1.38241
C         47.70353        44.47353         0.12755
C         46.56145        43.89437         0.76370
C         47.64239        45.82107        -0.40542
C         46.37561        46.50985        -0.45675
C         47.48258        48.46953        -1.56708
C         46.32929        47.85028        -0.99098
C         47.38359        49.77845        -2.16356
C         46.18017        50.55605        -1.97038
C         46.72087        52.59452        -3.37380
C         46.00612        51.97033        -2.33734
C         46.72001        53.98050        -3.59499
C         45.90606        54.79043        -2.81997
C         50.21803        20.29786        -0.17572
C         48.95163        20.94729        -0.00705
C         50.18425        23.08694         0.20485
C         48.96192        22.37737         0.22126
C         50.18494        24.58834         0.03797
C         48.96319        25.27936         0.56004
C         50.20829        27.38552         0.78295
C         48.96468        26.65325         0.72906
C         50.19390        28.79055         0.96878
C         48.95160        29.50787         0.94513
C         50.19235        31.64962         1.14056
C         48.98937        30.93007         0.99088
C         50.19519        33.10362         1.20322
C         48.99368        33.84055         1.18772
C         50.19834        35.97431         1.28803
C         48.97217        35.25920         1.31098
C         50.19045        37.41340         1.25613
C         48.95612        38.13314         1.34180
C         50.15222        40.26674         0.87859
C         48.92525        39.58537         1.17915
C         50.16578        41.60982         0.47756
C         48.94323        42.35066         0.49664
C         50.16899        44.41728        -0.13095
C         48.90426        43.72854         0.14039
C         50.10555        45.83271        -0.67321
C         48.78951        46.46195        -0.90149
C         49.93861        48.32895        -2.03632
C         48.73079        47.74780        -1.52855
C         49.86289        49.63738        -2.65271
C         48.58941        50.27493        -2.82726
C         49.72986        52.00067        -4.19995
C         48.58267        51.36173        -3.73801
C         51.39792        20.98688        -0.07078
C         52.67158        23.13192         0.19033
C         51.42358        22.40765         0.10043
C         52.67710        24.55180         0.44134
C         51.45984        25.26619         0.47254
C         52.67313        27.32280         1.02438
C         51.44772        26.65246         0.74627
C         52.62073        28.72902         1.44555
C         51.40119        29.51746         1.21151
C         52.68078        31.64707         1.45500
C         51.42408        30.92309         1.29371
C         52.67424        33.10708         1.40001
C         51.43445        33.81450         1.29665
C         52.66071        35.95695         1.15603
C         51.42884        35.24567         1.25587
C         52.64759        37.38367         1.03544
C         51.43051        38.09297         1.10122
C         52.65709        40.20039         0.49916
C         51.46530        39.59558         1.19621
C         52.62368        41.53074         0.03847
C         51.39263        42.26984         0.05415
C         52.55751        44.24610        -0.86393
C         51.38878        43.61582        -0.32588
C         52.49538        45.59903        -1.37703
C         51.28775        46.34189        -1.38437
C         52.39522        48.17755        -2.59196
C         51.16790        47.60573        -2.00860
C         52.35746        49.60059        -3.08879
C         51.04021        50.28285        -3.13518
C         50.97392        51.48779        -3.83902
C         55.11308        23.15685         0.25463
C         53.91738        22.47475         0.09822
C         55.15006        24.54348         0.53456
C         53.91834        25.24761         0.64202
C         55.15930        27.37741         1.05880
C         53.90731        26.65096         0.94143
C         55.18428        28.76941         1.27184
C         53.93447        29.48330         1.58780
C         55.17184        31.63979         1.68080
C         53.88341        30.95203         1.52107
C         55.16674        33.16360         1.62231
C         53.88136        33.83859         1.39178
C         55.14045        35.95756         1.06286
C         53.89708        35.24970         1.18847
C         55.12501        37.36923         0.84653
C         53.89407        38.07809         0.82686
C         55.08615        40.13507         0.13870
C         53.86818        39.47038         0.48861
C         55.06345        41.47200        -0.34517
C         53.81682        42.17125        -0.44593
C         54.90203        44.04698        -1.75826
C         53.75590        43.49992        -0.93934
C         54.95706        45.56219        -1.75156
C         53.72782        46.24340        -1.79024
C         54.87827        48.34113        -2.39060
C         53.69775        47.60502        -2.21026
C         54.78778        49.75040        -2.72103
C         53.61008        50.36341        -2.99821
C         57.65081        24.58516         0.56721
C         56.40394        25.25845         0.66867
C         57.63127        27.38237         0.91515
C         56.39602        26.66517         0.87685
C         57.64470        28.80480         1.05023
C         56.40920        29.51254         1.21445
C         57.63630        31.65721         1.27635
C         56.42424        30.92249         1.37742
C         57.63470        33.10623         1.23605
C         56.42083        33.85086         1.28394
C         57.62837        35.96220         0.90107
C         56.39159        35.24875         1.07353
C         57.62678        37.38223         0.73819
C         56.36210        38.08916         0.66530
C         57.55900        40.25347         0.28748
C         56.32410        39.45283         0.33460
C         57.53318        41.55808        -0.39866
C         56.29313        42.11301        -0.73162
C         57.52999        44.19769        -1.51998
C         56.24543        43.37651        -1.48014
C         57.44047        45.65671        -1.69782
C         56.17490        46.29209        -1.89536
C         57.36494        48.43247        -2.13009
C         56.14155        47.70511        -2.13150
C         58.84659        25.26884         0.63917
C         60.08860        27.40203         0.83363
C         58.86352        26.67775         0.79475
C         60.09371        28.77061         0.95571
C         58.87776        29.51194         1.05460
C         60.07566        31.69138         1.02531
C         58.87034        30.94966         1.12750
C         60.07101        33.06809         0.98728
C         58.86096        33.80568         1.05001
C         60.06611        35.96082         0.73523
C         58.85772        35.24366         0.90729
C         60.06232        37.33207         0.56673
C         58.85866        38.06461         0.58079
C         60.08207        40.23819        -0.06252
C         58.89464        39.53827         0.45939
C         60.01948        41.53693        -0.44403
C         58.77229        42.25970        -0.59577
C         59.91913        44.45805        -0.89959
C         58.76449        43.61904        -0.96755
C         59.86150        45.78364        -1.24628
C         58.62042        46.41655        -1.61001
C         58.56380        47.81863        -1.84703
O         24.09072        29.57704         1.20554
O         53.22953        28.95173         2.76643
O         28.38460        33.25510         2.44111
O         44.42270        44.59096         1.96543
O         44.24005        18.08331         0.71760
O         39.36807        48.16731        -1.41864
O         44.05027        25.91668         2.15115
O         47.37965        51.79482        -4.30946
O         34.47581        26.58917         1.44005
O         58.27047        40.25155         1.57900
O         43.53690        37.49919        -0.41168
O         52.36261        48.47541        -4.04075
O         55.23810        32.44902         2.90821
O         25.74253        39.94043         2.15918
O         50.38184        45.58047         0.75606
O         45.84318        42.27151         2.38311
O         44.02911        34.57297         2.90830
O         47.69064        32.50849        -0.39903
O         30.24841        49.61574         2.19138
O         57.06733        43.39288        -2.69171
O         41.43249        33.82246         3.33415
H         42.31492        34.16077         3.62708
O         36.70420        46.73914         2.59250
H         36.55508        45.84207         2.96047
O         43.11315        43.98781        -1.33461
H         42.38136        44.28558        -1.91581
O         47.82042        24.31488         2.38943
H         46.90964        24.13788         2.71186
O         51.68882        39.88419         2.63426
H         50.93555        39.49602         3.12921
O         40.59254        54.50536         1.59825
H         40.74375        55.44909         1.82135
O         37.90163        41.30121         2.57652
H         37.96150        42.16281         3.03898
O         36.50634        30.63126         3.07307
H         35.80034        29.97433         3.25986
O         32.79094        48.75246        -1.12065
H         33.64860        49.09678        -1.45223
O         45.06381        27.41782        -1.02706
H         45.82953        27.90396        -1.40067
O         23.66987        35.44331         2.48137
H         24.41031        35.11461         3.03422
O         31.54718        38.11495        -0.91032
H         32.38510        38.54243        -1.19132
O         46.51359        20.68646         1.92599
H         47.34393        21.09208         2.25788
O         37.41071        54.56171        -1.64465
H         36.53675        54.12359        -1.72845
O         50.13909        24.78421        -1.43775
H         50.94900        24.37049        -1.80662
O         46.51426        39.64857         3.24058
H         46.43320        40.59890         3.48661
O         35.20181        33.05030         3.19620
H         35.82335        32.33774         3.49243
O         30.33770        40.18777         2.89044
H         29.52255        40.64367         3.19252
O         54.54903        43.69515        -3.13682
H         55.39845        43.67440        -3.63767
O         37.67052        40.45900        -0.97095
H         37.69157        39.59751        -1.43745
H         22.32672        26.97952        -2.08630
H         22.12436        28.44588        -0.05129
H         22.00808        31.06631         1.33709
H         21.95753        33.57113         1.18164
H         22.10660        35.32218        -0.08550
H         22.19292        37.72152        -0.50717
H         22.10317        39.66927        -0.44688
H         22.16029        42.07125        -0.63874
H         22.12087        43.98028        -0.59370
H         22.14329        46.43428        -0.67422
H         25.99778        24.84300        -4.18554
H         23.77154        25.72520        -3.63045
H         25.41515        49.83740        -0.04116
H         23.34434        48.57812        -0.44088
H         27.64813        23.87687        -4.23327
H         27.09577        50.76151        -0.08713
H         29.72846        22.63132        -4.23783
H         29.16926        51.99233         0.10740
H         33.32584        20.24568        -3.93904
H         31.27886        21.53728        -4.04392
H         32.94615        54.18811         0.94801
H         30.81288        52.98602         1.04119
H         34.90925        19.19516        -3.77400
H         34.70882        55.03679         1.29982
H         36.98750        17.94707        -3.71462
H         36.75386        56.25005         0.74659
H         40.75375        15.73698        -3.57616
H         38.65273        17.00379        -3.73432
H         40.43351        58.33929        -0.57253
H         38.26105        57.15168        -0.42616
H         43.04535        15.47490        -2.73743
H         42.85184        58.25545        -1.08875
H         44.85135        16.20039        -1.22642
H         44.83208        56.94418        -1.74101
H         48.59918        18.27211        -0.49817
H         46.50839        17.04264        -0.40080
H         47.34049        54.40111        -4.39661
H         45.90445        55.87434        -2.99277
H         50.25634        19.21348        -0.34328
H         49.64171        52.85478        -4.88272
H         52.33891        20.42803        -0.15694
H         51.89077        51.96121        -4.21401
H         56.04707        22.58797         0.16030
H         53.96066        21.39688        -0.10498
H         55.69978        50.36188        -2.69127
H         53.58257        51.45526        -3.12601
H         57.67765        23.49616         0.43135
H         57.35892        49.51402        -2.31872
H         59.79931        24.72570         0.56090
H         61.03657        26.85019         0.75708
H         61.05937        29.29194         0.98083
H         61.03867        31.17146         0.94462
H         61.03189        33.58688         0.88063
H         61.03178        35.44065         0.74440
H         61.02204        37.85316         0.45428
H         61.04535        39.71161        -0.11028
H         60.94363        42.03290        -0.77293
H         60.87200        44.03572        -0.55181
H         60.76627        46.40567        -1.18989
H         59.49108        48.40718        -1.80081
