         470
 CSIRO Nanostructure Databank - Neutral Graphene Oxide Data Set
C         40.21029        50.66029         5.76265
C         39.69660        51.24508         6.91857
C         39.66527        53.37345         5.79163
C         39.43934        52.61727         6.93976
C         40.85904        49.33825         3.14641
C         41.17728        50.65550         3.51871
C         40.47309        51.40067         4.59250
C         41.08477        54.03566         2.64022
C         40.18962        52.79290         4.62264
C         40.77745        55.08696         1.75323
C         42.92539        49.17935         1.83368
C         41.73556        48.61666         2.33466
C         43.21552        50.53441         2.09719
C         42.36376        51.18754         2.99950
C         43.15998        53.63721         1.40043
C         42.32939        53.40435         2.50730
C         42.92674        54.80219         0.61095
C         41.72124        55.50882         0.81999
C         45.17031        46.21402         1.12846
C         44.06683        46.92569         1.48574
C         45.15638        48.99919         0.53660
C         43.90904        48.33021         1.10066
C         45.33580        50.44607         0.67975
C         44.46101        51.27680         1.60793
C         45.28333        53.21648         0.07796
C         44.15441        52.63803         0.93131
C         45.25500        54.65209        -0.26470
C         44.01514        55.33681        -0.20907
C         45.05276        57.21656        -1.36813
C         43.93991        56.61981        -0.80134
C         47.52442        44.60722         0.49656
C         47.50039        45.98275         0.20404
C         46.31744        46.80200         0.47987
C         47.51591        48.84250        -0.27873
C         46.35356        48.18096         0.26882
C         47.55898        50.21697        -0.42978
C         46.45858        51.02993         0.07025
C         47.76911        53.10219        -0.36631
C         46.51422        52.44074        -0.05422
C         47.72768        54.63673        -0.68635
C         46.41091        55.29204        -0.76630
C         47.53389        57.25221        -1.78333
C         46.32349        56.59306        -1.32267
C         47.53727        58.61833        -2.14837
C         49.83155        44.41720        -0.25571
C         48.66038        43.84219         0.25070
C         49.84112        45.81209        -0.55558
C         48.65960        46.57026        -0.36337
C         49.90195        48.65092        -1.26781
C         48.61587        47.98515        -0.78940
C         49.98146        50.12519        -1.20758
C         48.67442        50.88584        -1.23197
C         50.06767        53.00687        -1.25411
C         48.88264        52.34468        -0.89653
C         50.09498        54.43994        -1.49521
C         48.87134        55.19605        -1.40933
C         49.94972        57.19258        -2.41056
C         48.75781        56.52342        -1.85149
C         49.97170        58.67366        -2.38837
C         48.72378        59.31823        -2.36968
C         52.32830        41.53297         0.03951
C         51.13634        42.18178        -0.01085
C         52.31619        44.23185        -0.87608
C         51.01107        43.54940        -0.54718
C         52.33751        45.72477        -0.73211
C         51.07669        46.49745        -0.94148
C         52.42241        48.53128        -1.64874
C         51.13675        47.83920        -1.22551
C         52.42874        50.03708        -1.43350
C         51.20308        50.79191        -1.33791
C         52.48799        52.90099        -1.74095
C         51.26134        52.23938        -1.46420
C         52.52346        54.32899        -2.00340
C         51.29196        55.04582        -1.95325
C         52.53635        57.23538        -2.65896
C         51.24478        56.43097        -2.47817
C         52.44495        58.65005        -2.08181
C         51.21185        59.36108        -2.18943
C         52.34486        61.43228        -1.53451
C         51.21722        60.77108        -1.94549
C         54.89768        40.00909        -0.37367
C         54.85137        41.39211        -0.26867
C         53.58614        42.15129        -0.34663
C         54.80613        44.17207        -1.24625
C         53.58334        43.48756        -0.69829
C         54.88864        45.66593        -0.98661
C         53.65360        46.43794        -0.79957
C         54.89740        48.50072        -1.27667
C         53.68182        47.86608        -1.13456
C         54.88739        49.89504        -1.87270
C         53.63541        50.70241        -1.56865
C         54.93473        52.79398        -1.95008
C         53.68749        52.12743        -1.74118
C         54.95585        54.18317        -2.29346
C         53.76810        55.00777        -2.29503
C         54.92097        57.27789        -2.05501
C         53.79332        56.46365        -2.29856
C         54.85225        58.63142        -1.54429
C         53.59405        59.33113        -1.63952
C         54.72842        61.36842        -0.79697
C         53.56938        60.73030        -1.31634
C         54.71598        62.76645        -0.46010
C         57.31034        39.51054         0.00452
C         56.07680        39.18629        -0.51891
C         57.35144        41.62509         0.01846
C         56.07500        42.18679        -0.35736
C         57.33537        44.11828        -1.21985
C         56.07143        43.45524        -0.88367
C         57.35650        45.59413        -1.01175
C         56.08695        46.34940        -1.09159
C         57.41385        48.44952        -1.26915
C         56.13937        47.78367        -1.13955
C         57.42135        49.93439        -1.25074
C         56.11860        50.66426        -1.44667
C         57.40328        52.75483        -1.70444
C         56.16675        52.09093        -1.77849
C         57.42544        54.13165        -2.03012
C         56.25984        54.69369        -2.53493
C         57.35917        57.26853        -1.55824
C         56.25927        56.82724        -2.25216
C         57.25799        58.52835        -0.85585
C         55.98831        59.23710        -0.98680
C         57.01622        61.17561         0.14968
C         55.92979        60.61054        -0.52768
C         56.90525        62.55958         0.63897
C         55.74314        63.34704         0.20983
C         59.88455        36.89023        -0.61134
C         58.72033        37.54247        -0.43209
C         59.80261        39.78282        -0.31074
C         58.64220        38.98422        -0.28249
C         59.80457        41.25516        -0.30741
C         58.57473        42.02798        -0.46369
C         59.89486        44.11392        -0.92039
C         58.63985        43.36638        -1.09213
C         59.92755        45.54141        -1.44048
C         58.66103        46.31121        -1.06349
C         59.91678        48.44004        -1.53278
C         58.61687        47.76439        -1.30740
C         59.94063        49.94464        -1.58197
C         58.67352        50.68493        -1.44470
C         59.92665        52.82594        -1.61927
C         58.66956        52.06178        -1.54183
C         59.91088        54.20958        -1.66203
C         58.61219        54.93038        -1.62987
C         59.81747        57.24478        -1.18938
C         58.56357        56.41104        -1.35582
C         59.61828        58.23985        -0.02488
C         58.35137        59.07026        -0.19694
C         59.47689        61.04722         0.98172
C         58.14829        60.29707         0.67237
C         59.47335        62.55752         1.10544
C         58.16110        63.29047         1.10359
C         59.32013        65.44209         0.62495
C         58.22785        64.76809         1.03525
C         62.56907        35.44729        -0.39640
C         62.38069        36.92034        -0.23766
C         61.16785        37.63225        -0.83255
C         62.28179        39.82641        -0.39963
C         61.10903        39.11760        -0.45365
C         62.32463        41.31750        -0.57289
C         60.99422        41.98219        -0.35797
C         62.24692        44.16515        -0.14248
C         61.00461        43.42591        -0.49688
C         62.28087        45.64600        -0.36254
C         61.12820        46.33860        -0.98932
C         62.31783        48.46562        -0.65451
C         61.13364        47.69002        -1.10777
C         62.36273        49.96332        -0.83712
C         61.18467        50.71040        -1.34376
C         62.47799        52.81103        -1.47842
C         61.18011        52.07794        -1.47762
C         62.46721        54.31325        -1.43444
C         61.14184        55.04268        -1.57490
C         62.22123        57.07740        -0.63201
C         61.08165        56.42460        -1.05213
C         62.11462        58.43531        -0.07525
C         60.90466        59.04333         0.13710
C         62.03496        61.25682         0.59294
C         60.82379        60.39848         0.74530
C         61.98749        62.61982         0.49087
C         60.71781        63.33770         0.78151
C         61.88126        65.49807         0.01876
C         60.58699        64.75038         0.29180
C         61.91362        66.97117        -0.12363
C         64.97790        35.78595        -1.00044
C         63.76928        34.91872        -0.68260
C         64.92886        37.06982        -0.23339
C         63.61531        37.72723        -0.12400
C         64.76653        39.89470         0.19891
C         63.63799        39.17420        -0.53457
C         64.71448        41.31192         0.36013
C         63.51355        42.01642         0.05909
C         64.69149        44.13437         0.37859
C         63.50922        43.41510         0.08891
C         64.78137        45.55533        -0.04001
C         63.58202        46.35824        -0.36679
C         64.83687        48.51454        -0.31039
C         63.59838        47.72122        -0.49123
C         64.78249        50.00366        -0.23087
C         63.65807        50.65293        -0.71749
C         64.86381        52.82720        -0.48691
C         63.72462        52.08211        -1.03986
C         64.72649        54.25300        -0.26829
C         63.57993        55.02485        -0.79311
C         64.70802        57.13777        -0.21667
C         63.50276        56.39095        -0.56725
C         64.67257        58.45296         0.13483
C         63.36532        59.08882         0.38900
C         64.58036        61.35109         0.55841
C         63.33676        60.56609         0.67294
C         64.49674        62.73717         0.50186
C         63.21120        63.41637         0.42615
C         64.35353        65.60470         0.60840
C         63.14799        64.79542         0.32423
C         64.31341        67.11350         0.48521
C         63.03389        67.70379         0.01562
C         67.73472        33.20325        -1.47795
C         66.48720        33.82491        -1.46403
C         67.43543        35.74644        -0.30934
C         66.31510        35.08964        -0.89829
C         67.30675        37.07916         0.20252
C         66.06344        37.77095         0.14961
C         67.10753        39.93142         0.90919
C         65.94745        39.20420         0.49679
C         67.09398        41.34020         1.11697
C         65.87457        42.02977         0.81038
C         67.03950        44.15838         1.27816
C         65.86715        43.45541         0.80539
C         66.98618        45.64261         1.26479
C         66.03314        46.29856         0.32039
C         67.06867        48.56590         0.97086
C         66.05007        47.79356         0.19708
C         67.07504        50.07208         0.79959
C         65.97653        50.73037         0.07829
C         67.23796        52.87529         0.28999
C         66.01091        52.15207        -0.02526
C         67.27750        54.27710         0.17300
C         66.00839        55.00199         0.09217
C         67.30704        57.17384        -0.21671
C         66.01445        56.42946        -0.29768
C         67.19391        58.69152        -0.12805
C         65.92777        59.14985         0.64482
C         67.03655        61.38355         0.54832
C         65.85406        60.67150         0.56598
C         67.03719        62.85196         0.26698
C         65.70921        63.52956         0.48660
C         66.90015        65.66274         0.48854
C         65.64259        64.89019         0.59825
C         66.87296        67.12135         0.25504
C         65.61041        67.95376         0.46650
C         66.88069        69.72903        -0.66734
C         65.68580        69.12774        -0.48155
C         70.37825        31.99924        -1.73429
C         70.20291        33.20253        -1.01792
C         68.86702        33.81313        -0.89216
C         69.82820        35.69418         0.44553
C         68.69658        35.07132        -0.27311
C         69.74734        37.10383         0.85127
C         68.38580        37.71200         1.03181
C         69.60125        39.94920         1.50110
C         68.38114        39.22176         0.90171
C         69.35519        41.26288         2.11594
C         68.22065        42.04525         1.71605
C         69.24410        44.33406         2.39669
C         68.13579        43.50053         1.85974
C         69.38411        45.72182         2.09271
C         68.21070        46.45032         1.62441
C         69.48014        48.60209         1.57102
C         68.31493        47.87759         1.29841
C         69.52337        50.04008         1.34681
C         68.37187        50.75839         0.93949
C         69.66791        52.84026         0.81751
C         68.43198        52.14712         0.65862
C         69.74224        54.27071         0.45656
C         68.49407        55.03611         0.26722
C         69.69483        57.19388         0.60460
C         68.52022        56.43939         0.22751
C         69.62362        58.63536         0.71785
C         68.41801        59.33797         0.47259
C         69.48562        61.47673         1.01968
C         68.32631        60.72249         0.67149
C         69.36861        62.92114         1.18576
C         68.21476        63.57118         0.87146
C         69.38844        65.79843         0.94845
C         68.09505        65.04719         1.17660
C         69.38183        67.17859         0.58709
C         68.15306        67.87764         0.31801
C         69.37471        69.93708        -0.19920
C         68.13746        69.18842        -0.14042
C         69.38848        71.31058        -0.54636
C         72.77530        32.11001        -1.45807
C         71.64143        31.45680        -1.94821
C         72.62871        33.29511        -0.74140
C         71.35878        33.84829        -0.50603
C         72.35476        35.96215         0.59506
C         71.21693        35.06570         0.33514
C         72.17568        37.18701         1.15320
C         70.85957        37.76577         1.32561
C         71.50542        39.48422         2.99519
C         70.70540        39.08298         1.94982
C         71.24441        40.71577         3.64295
C         70.21772        41.54623         3.21675
C         71.36666        44.56893         3.64411
C         70.21453        43.84887         3.30005
C         71.57466        45.84575         3.13696
C         70.54914        46.47881         2.40145
C         71.82338        48.63861         2.22648
C         70.63633        47.90151         2.05885
C         71.88775        50.00340         1.95935
C         70.75397        50.74413         1.54282
C         71.96366        52.94651         1.69063
C         70.80702        52.16793         1.30203
C         72.03131        54.29791         1.56216
C         71.00812        55.05937         0.83208
C         71.99645        57.29023         1.42131
C         70.88947        56.53194         0.96948
C         71.95106        58.66813         1.48634
C         70.77221        59.38270         1.14201
C         71.87738        61.62175         1.54334
C         70.70614        60.81507         1.23102
C         71.81077        62.95174         1.75812
C         70.51174        63.71278         1.79241
C         71.80308        65.83132         1.07727
C         70.58568        65.12812         1.21652
C         71.81524        67.16742         0.70706
C         70.61616        67.88022         0.46959
C         71.80361        70.04400         0.05218
C         70.60704        69.28830         0.11094
C         71.79026        71.38553        -0.29435
C         70.57445        72.02420        -0.59390
O         66.98773        66.18548        -0.88480
O         70.77794        54.58111        -0.53168
O         40.09361        53.66941         3.52454
O         62.00578        49.33260         0.49070
O         69.99174        42.66843         4.01295
O         61.96676        45.10084         0.97733
O         58.09730        45.91730         0.23257
O         42.73919        52.45922         3.46983
O         60.19553        60.41869         2.07914
O         63.33298        59.58134         1.78622
O         51.47370        43.71237        -1.94780
O         50.39168        56.54972        -3.67957
O         65.05780        54.66202         1.12748
O         57.32091        40.56890         0.93520
O         66.56443        49.42334         2.04253
O         58.00417        43.57972        -2.42571
O         66.79402        56.67351        -1.51805
O         48.10040        54.13926         0.62949
O         62.05718        54.89751        -2.72081
O         63.41956        52.32856        -2.49655
O         69.37325        39.83604         0.05358
O         64.15754        66.48100         1.80674
O         60.02054        49.12808        -2.82865
O         65.92939        45.66916        -0.97868
O         54.83660        49.70466        -3.27814
O         65.96662        48.17537        -1.20917
O         52.98276        46.10814         0.52725
O         70.37448        34.83033         1.51566
O         43.99369        48.61450        -0.32568
O         58.37240        55.47545        -0.24380
O         67.03074        46.25534         2.57532
O         62.80854        37.42014         1.07260
O         56.42764        55.87347        -3.25575
O         67.31686        62.93882        -1.25879
O         60.31268        63.10608         2.17072
O         61.08019        64.87696        -1.07333
O         56.60379        50.40188        -0.09634
O         57.23837        62.74270         2.09163
O         48.87827        48.17137        -2.22896
O         44.10817        52.50894        -0.50702
O         59.98403        45.44890        -2.88526
H         59.26260        44.83316        -3.16632
O         64.84155        36.18998        -2.41318
H         64.36993        37.05561        -2.44549
O         66.06886        58.75649         2.02786
H         65.21973        58.98742         2.47410
O         52.50928        48.35947        -3.09832
H         53.34842        48.85012        -3.38902
O         52.71435        57.46397        -4.09138
H         51.83958        57.27992        -4.51497
O         66.36575        62.09539        -1.92849
H         66.78671        61.19242        -1.90778
O         68.00586        37.47136         2.43433
H         68.09237        36.50906         2.60629
O         59.98458        58.05881        -2.38051
H         60.30708        57.48825        -3.10975
O         54.68745        44.06703        -2.71187
H         53.73827        44.14196        -2.95294
O         59.45805        57.50196         1.20266
H         59.11737        58.12696         1.88298
O         67.77902        65.16152         2.59828
H         68.51782        64.72003         3.09150
O         63.99963        39.16566        -1.94851
H         63.79461        40.06910        -2.29880
O         70.17262        63.89475         3.21817
H         70.90126        64.40362         3.63306
O         65.73750        68.51904         1.79841
H         65.39837        67.84155         2.42900
O         62.57736        41.49261        -2.03846
H         61.75989        41.22704        -2.51334
O         45.27730        51.55667         2.77938
H         44.69876        52.01913         3.42955
O         48.21311        50.84652        -2.63041
H         48.25608        49.89743        -2.90692
O         67.06570        59.22374        -1.47506
H         66.89544        58.45013        -2.06764
O         57.67900        59.80164         1.96685
H         57.55784        60.59169         2.54296
O         61.40656        37.60065        -2.27723
H         60.58918        37.90116        -2.72688
H         40.43514        49.58399         5.75950
H         39.50884        50.62922         7.80797
H         39.42663        54.44539         5.78194
H         39.04037        53.09578         7.84423
H         39.94082        48.86297         3.51794
H         39.81220        55.60193         1.83957
H         41.49260        47.57389         2.08858
H         41.49142        56.39023         0.20717
H         45.21486        45.15932         1.42948
H         43.30274        46.45675         2.12233
H         44.94125        58.20444        -1.83424
H         42.98583        57.16359        -0.81521
H         46.63957        44.10156         0.90181
H         46.59740        59.18573        -2.14092
H         48.62295        42.76600         0.46499
H         48.66373        60.40944        -2.48067
H         52.35852        40.51271         0.44879
H         50.24512        41.68207         0.39503
H         52.28349        62.51305        -1.35291
H         50.29004        61.34463        -2.07483
H         53.94064        39.48873        -0.54207
H         53.84838        63.38337        -0.72859
H         55.97113        38.27211        -1.12286
H         55.68532        64.40564         0.49463
H         59.89508        35.79483        -0.70244
H         57.78276        36.97533        -0.33370
H         59.29052        66.53952         0.56251
H         57.32689        65.32733         1.32444
H         61.70632        34.78486        -0.22171
H         60.98681        67.45749        -0.46153
H         63.87245        33.82588        -0.76847
H         62.99703        68.78681        -0.17222
H         67.81739        32.22278        -1.96345
H         65.63350        33.32034        -1.93733
H         66.93081        70.62773        -1.29947
H         64.77637        69.54843        -0.93465
H         69.51050        31.46407        -2.14091
H         68.44449        71.82686        -0.76758
H         73.77548        31.68725        -1.62380
H         71.74438        30.51662        -2.50716
H         73.52457        33.78770        -0.33953
H         73.37083        35.63093         0.33802
H         73.04985        37.81432         1.38025
H         72.31499        38.83757         3.35943
H         71.82579        41.00540         4.52714
H         72.09057        44.11807         4.33505
H         72.48875        46.38839         3.40994
H         72.74000        48.13527         2.56305
H         72.85517        50.50763         2.08432
H         72.78155        52.43750         2.21899
H         72.87105        54.83448         2.02608
H         72.92921        56.77898         1.69490
H         72.84488        59.20811         1.82487
H         72.85959        61.13053         1.59497
H         72.73239        63.49048         2.02547
H         72.76098        65.32586         1.26239
H         72.78619        67.67087         0.60789
H         72.76576        69.57069         0.29064
H         72.73080        71.95262        -0.33019
H         70.56599        73.09025        -0.86024
