         720
 CSIRO Nanostructure Databank - Neutral Graphene Oxide Data Set
C         23.23371        27.92541         0.42992
C         23.29936        29.23334         0.89395
C         23.42696        31.84446         2.25901
C         23.47257        33.19050         2.70091
C         23.58250        36.12318         3.11103
C         23.61836        37.50733         3.12603
C         23.65732        40.40335         3.10617
C         23.63092        41.77652         3.00313
C         23.50096        44.66858         2.52557
C         23.45735        46.06492         2.32337
C         25.44940        25.06270        -0.43895
C         24.34042        25.77680        -0.14800
C         25.64964        27.74490         0.63916
C         24.40477        27.15758         0.30889
C         25.73808        29.08898         1.06336
C         24.52824        29.83317         1.23668
C         25.87309        31.71414         2.17682
C         24.56025        31.14751         1.86325
C         25.92199        33.16958         2.65450
C         24.66300        33.90142         2.78067
C         25.97958        36.00452         2.64860
C         24.74455        35.34540         2.85644
C         25.98489        37.46121         2.42380
C         24.77740        38.22758         2.77164
C         25.99935        40.36165         2.36173
C         24.80891        39.65248         2.75181
C         25.92690        41.76865         2.15496
C         24.73153        42.49060         2.46944
C         25.70827        44.53901         1.44359
C         24.62154        43.90505         2.20573
C         25.61838        46.02141         1.12307
C         24.51014        46.76724         1.74364
C         25.72499        48.88356         1.47854
C         24.58126        48.19323         1.80290
C         28.06904        23.48188        -0.83475
C         28.06658        24.93135        -0.55282
C         26.78858        25.68122        -0.31061
C         28.20127        27.54275         0.82676
C         26.86305        26.90752         0.55114
C         28.21509        28.98202         1.17135
C         27.05170        29.69839         1.28046
C         28.36444        31.81548         1.91086
C         27.07347        31.21301         1.39367
C         28.38164        33.09640         2.39108
C         27.17993        33.89833         2.47139
C         28.50493        36.00189         2.51569
C         27.20898        35.29728         2.48773
C         28.61168        37.54144         2.61161
C         27.28843        38.19698         2.21673
C         28.41333        40.35418         1.79139
C         27.24561        39.68281         2.19001
C         28.33437        41.77261         1.49632
C         27.08630        42.44894         1.64130
C         28.13270        44.53817         0.91776
C         27.00724        43.83366         1.35001
C         28.13148        46.03811         1.12993
C         26.86644        46.77018         0.63297
C         28.13400        48.92002         0.91494
C         26.93018        48.23284         1.06581
C         28.23693        50.35284         0.97212
C         30.50987        23.39760        -0.71072
C         29.24046        22.76343        -0.80084
C         30.49008        24.89483        -0.94228
C         29.39323        25.44708         0.02216
C         30.65353        27.61173         0.37932
C         29.42724        26.93652         0.27196
C         30.75345        28.93367         0.86639
C         29.55135        29.59386         1.40347
C         30.88412        31.80070         1.45512
C         29.63244        31.04253         1.80034
C         31.01175        33.26105         1.78710
C         29.59194        33.73798         3.03865
C         31.37424        36.25306         2.03744
C         29.57187        35.23804         2.89196
C         31.03137        37.57441         1.53849
C         29.78280        38.25481         1.87087
C         30.71400        40.33621         0.73833
C         29.63768        39.60212         1.54973
C         30.80848        41.83433         1.13087
C         29.44949        42.49200         0.97849
C         30.32407        44.45193        -0.33931
C         29.34269        43.85186         0.65472
C         30.23297        46.02523        -0.48273
C         29.39721        46.70963         0.59462
C         30.44588        48.91932        -0.17605
C         29.37359        48.19556         0.53922
C         30.42443        50.32301        -0.16897
C         29.31094        51.01139         0.44061
C         32.86856        20.46574        -0.31294
C         31.72101        21.24371        -0.31342
C         32.97056        23.29574        -0.77140
C         31.73289        22.66405        -0.58824
C         33.10743        24.78067        -1.04160
C         31.83606        25.59577        -0.77256
C         33.17831        27.40686         0.57782
C         31.89578        26.92416        -0.09657
C         33.24918        28.95864         0.40152
C         32.09225        29.56289         1.23578
C         33.33538        31.80428         1.00157
C         32.10799        31.08956         1.12712
C         33.43733        33.18963         1.17530
C         32.38308        33.96040         1.93634
C         33.13252        35.91022         0.32051
C         32.28216        35.41664         1.46837
C         33.13016        37.43340         0.22127
C         32.02713        38.17303         0.76436
C         33.01671        40.25713        -0.22508
C         32.09552        39.67202         0.80371
C         32.79254        41.66181        -0.56604
C         32.01964        42.56072         0.40324
C         32.73949        44.56397        -0.91683
C         31.72258        43.90009        -0.26208
C         32.65075        46.01131        -1.11494
C         31.55942        46.73243        -0.67896
C         32.75863        48.90015        -0.97947
C         31.58055        48.18804        -0.64485
C         32.76013        50.33830        -0.96283
C         31.56088        51.05074        -0.66768
C         32.70588        53.14255        -1.16430
C         31.56128        52.46309        -0.80895
C         35.36702        18.82107        -0.68338
C         35.34248        20.24498        -0.75891
C         34.12777        21.00295        -0.63967
C         35.46559        23.08607        -0.61906
C         34.17822        22.44900        -1.06636
C         35.50204        24.49660        -0.19068
C         34.33226        25.36242        -0.35123
C         35.69769        27.33138         0.17891
C         34.42749        26.68458         0.07629
C         35.82480        28.75680         0.54029
C         34.56470        29.54067         0.86547
C         35.92577        31.75366         0.60082
C         34.62571        31.04191         0.92117
C         35.81864        33.17564         0.22739
C         34.75248        33.93758         0.99420
C         35.59250        35.98484        -0.42685
C         34.55779        35.36701         0.45934
C         35.23225        37.28430        -1.10396
C         34.11697        38.07686        -0.51933
C         35.11627        40.20164        -1.49148
C         34.04993        39.51314        -0.78215
C         35.10250        41.57186        -1.63147
C         33.91117        42.37184        -1.32952
C         35.10331        44.50921        -1.68793
C         33.97851        43.85699        -1.26893
C         35.09755        45.96922        -1.93477
C         33.81535        46.74435        -1.66153
C         35.14613        48.84389        -1.64464
C         33.93541        48.19403        -1.42328
C         35.25291        50.30439        -1.24902
C         33.95393        51.05636        -1.24101
C         35.18036        53.20601        -1.56979
C         33.94653        52.46423        -1.33358
C         35.23758        54.61404        -1.58148
C         37.79024        18.75576        -1.05672
C         36.54333        18.11191        -0.81952
C         37.81171        20.18689        -1.16157
C         36.58596        20.92141        -0.97160
C         37.88583        23.08507        -0.94570
C         36.61643        22.34719        -0.75729
C         38.12455        24.34916        -0.13673
C         36.85462        25.17004         0.02482
C         38.10492        27.31827        -0.35895
C         36.89709        26.63435        -0.09059
C         38.11135        28.76357        -0.39688
C         37.03368        29.47664         0.11544
C         38.03515        31.60284        -0.82001
C         37.20798        30.97843         0.29250
C         37.83893        32.92065        -1.17939
C         36.75513        33.76623        -0.63280
C         37.60546        35.78969        -2.00301
C         36.67418        35.15043        -0.98332
C         37.67038        37.30321        -1.80515
C         36.35950        37.99385        -1.81142
C         37.61914        40.19068        -1.68518
C         36.32994        39.48865        -2.08638
C         37.63193        41.59245        -1.72676
C         36.35076        42.27856        -2.01741
C         37.63485        44.48485        -1.82495
C         36.34956        43.77592        -2.03217
C         37.63049        45.94393        -2.02060
C         36.35959        46.71195        -1.95886
C         37.64572        48.82667        -2.05063
C         36.35163        48.09599        -1.92447
C         37.62676        50.31740        -2.07963
C         36.37307        51.07180        -1.88266
C         37.62743        53.21950        -1.95632
C         36.40015        52.48257        -1.79847
C         37.67138        54.62423        -1.90440
C         36.43305        55.30499        -1.75003
C         40.18297        15.89095        -0.70594
C         39.05917        16.56072        -1.02964
C         40.24305        18.70970        -1.24021
C         39.03005        18.02744        -1.12299
C         40.29400        20.14069        -1.38334
C         39.04906        20.85261        -1.39341
C         40.36243        23.05177        -1.50467
C         39.06336        22.32569        -1.44016
C         40.43792        24.43922        -1.01574
C         39.32353        25.13826        -0.59991
C         40.49136        27.27297        -0.92824
C         39.33449        26.58307        -0.56192
C         40.41486        28.65685        -1.41082
C         39.24089        29.47005        -1.00005
C         40.20235        31.41345        -2.23975
C         39.17861        30.82103        -1.27294
C         40.23306        32.95536        -2.17043
C         38.93796        33.65627        -1.84759
C         40.15554        35.84398        -1.80557
C         38.90485        35.12316        -1.70342
C         40.14894        37.35474        -1.73979
C         38.82502        38.01861        -1.61566
C         40.01372        40.19509        -1.20427
C         38.81486        39.47594        -1.46537
C         40.00652        41.61093        -1.21200
C         38.82390        42.33130        -1.49527
C         40.00790        44.55497        -1.17739
C         38.81369        43.80340        -1.56389
C         40.05211        45.92916        -1.17726
C         38.92978        46.68642        -1.73159
C         40.04941        48.84391        -1.30194
C         38.89407        48.15483        -1.58774
C         40.15073        50.26879        -1.79609
C         38.83871        51.03284        -1.54710
C         40.19182        53.16187        -2.00250
C         38.87734        52.45032        -2.08132
C         40.18302        54.62291        -1.80697
C         38.96165        55.33840        -1.85729
C         40.22911        57.40331        -1.50616
C         39.02497        56.74873        -1.72291
C         42.72748        15.89526        -0.40361
C         41.43207        16.67734        -0.37328
C         42.78391        18.64346        -1.00593
C         41.50797        17.88324        -1.32162
C         42.81220        20.12733        -1.14938
C         41.54919        20.81318        -1.46839
C         42.92231        22.97471        -1.48349
C         41.63071        22.26628        -1.63668
C         42.97595        24.34411        -1.35902
C         41.75310        25.06699        -0.95762
C         43.03143        27.24922        -1.38034
C         41.78146        26.60294        -0.94858
C         43.06663        28.68519        -1.88088
C         41.66680        29.31339        -1.90565
C         42.86099        31.57345        -1.94983
C         41.60692        30.79383        -2.12298
C         42.72020        33.04320        -1.81423
C         41.51347        33.67091        -1.90451
C         42.61202        35.87924        -1.13972
C         41.40105        35.09430        -1.47795
C         42.56128        37.36044        -1.08411
C         41.37283        38.05873        -1.28587
C         42.41678        40.16290        -0.62183
C         41.28698        39.47876        -1.01904
C         42.23670        41.57302        -0.07920
C         41.31902        42.35510        -1.02790
C         42.34859        44.54809        -0.08179
C         41.12860        43.79602        -0.55935
C         42.42179        46.01627        -0.28266
C         41.09588        46.72310        -0.39935
C         42.42788        48.85451        -0.63423
C         41.24521        48.16662        -0.83703
C         42.39842        50.36909        -0.47178
C         41.30307        51.05022        -1.24272
C         42.58152        53.12050        -1.30406
C         41.35242        52.39597        -1.48496
C         42.63985        54.51211        -1.37550
C         41.41131        55.27433        -1.52550
C         42.69122        57.33289        -1.07923
C         41.43802        56.68255        -1.37425
C         43.91702        16.45309        -0.67515
C         45.29259        18.65378        -0.62444
C         44.08254        17.86451        -1.21223
C         45.29563        20.08417        -1.17972
C         44.13521        20.76617        -1.40899
C         45.42451        22.97553        -1.92363
C         44.12784        22.19975        -1.81093
C         45.42468        24.40763        -1.55714
C         44.22677        25.08677        -1.35287
C         45.49901        27.29375        -1.00064
C         44.20766        26.54682        -1.30426
C         45.49407        28.79100        -1.31522
C         44.13236        29.44918        -1.02973
C         45.37445        31.71471        -1.56608
C         44.06951        31.02327        -1.15788
C         45.29418        33.08875        -1.63714
C         43.99362        33.79942        -1.74480
C         45.13711        35.95764        -0.88364
C         43.94445        35.26992        -1.43274
C         44.99692        37.34759        -0.49807
C         43.77810        38.01993        -0.72528
C         44.95847        40.17690        -0.13928
C         43.72111        39.48293        -0.64592
C         44.83499        41.58572         0.33646
C         43.54419        42.31532         0.21568
C         44.80712        44.45014        -0.01931
C         43.61753        43.79172         0.02676
C         44.84477        45.93114         0.11235
C         43.60753        46.69502        -0.21002
C         44.88259        48.84479        -0.21186
C         43.67961        48.16084        -0.33308
C         44.94294        50.36608        -0.11804
C         43.72977        51.03728        -0.70206
C         45.04866        53.01123        -1.52240
C         43.78229        52.33905        -1.08917
C         45.09273        54.46197        -1.06964
C         43.90184        55.19600        -1.12506
C         43.85432        56.62960        -0.95148
C         47.78465        18.62406        -0.90826
C         46.60357        17.95432        -0.88148
C         47.84377        20.05839        -0.98442
C         46.61031        20.72236        -1.46862
C         48.02507        22.91625        -1.80330
C         46.69353        22.17347        -1.86714
C         47.90531        24.38731        -1.48218
C         46.69652        25.10568        -1.47394
C         47.94305        27.22405        -1.48208
C         46.72703        26.52174        -1.38067
C         47.91122        28.66921        -1.68664
C         46.67593        29.47616        -1.59599
C         47.78260        31.79791        -1.58711
C         46.65967        30.98382        -1.61487
C         47.76183        33.26704        -1.47323
C         46.48584        34.02698        -1.74320
C         47.50323        35.90007        -0.24731
C         46.34466        35.28680        -0.86779
C         47.25498        37.14039         0.61355
C         46.15223        38.03402         0.05725
C         47.20969        40.14972         1.04325
C         46.11194        39.38485         0.30893
C         47.25378        41.60339         0.54214
C         46.12970        42.30186         0.24010
C         47.40661        44.50647        -0.13212
C         46.10671        43.73835        -0.12628
C         47.45495        45.96476         0.11921
C         46.14973        46.65773         0.23684
C         47.47451        48.86274         0.15121
C         46.14236        48.15521         0.17732
C         47.51725        50.32482        -0.18878
C         46.25046        50.99814        -0.61025
C         47.56620        52.96713        -1.54250
C         46.29172        52.22409        -1.18999
C         47.53027        54.30947        -0.82539
C         46.37186        55.00650        -0.69297
C         50.17301        20.17214        -0.15578
C         49.00774        20.81246        -0.72134
C         50.23665        22.96277        -0.64353
C         49.07004        22.22191        -0.94944
C         50.31198        24.34025        -0.98493
C         49.13757        25.08268        -1.34873
C         50.50113        27.15940        -1.80117
C         49.16901        26.49538        -1.47051
C         50.42046        28.63128        -1.52195
C         49.20136        29.18954        -1.93424
C         50.19477        31.73271        -0.86052
C         49.16348        31.34521        -1.65844
C         49.99135        33.00658        -0.08015
C         48.91258        33.88178        -0.73747
C         49.95504        35.95600         0.12408
C         48.70389        35.23064        -0.15345
C         49.89206        37.32850         0.62866
C         48.56509        37.93271         1.08125
C         49.70864        40.14200         0.95921
C         48.54889        39.44686         0.87962
C         49.67459        41.64489         1.22159
C         48.56968        42.25204         0.40552
C         49.89306        44.43737         0.40872
C         48.66255        43.73149         0.07745
C         49.93874        45.92355         0.60468
C         48.66244        46.64569         0.20801
C         49.97832        48.68568        -0.25044
C         48.73842        48.07724         0.08480
C         50.04714        50.05666        -0.65790
C         48.84925        50.92287        -0.56996
C         50.01723        52.68417        -1.81020
C         48.84160        52.20394        -1.28617
C         51.29739        20.87404         0.15477
C         52.53177        23.01618         0.31456
C         51.38785        22.29739        -0.04577
C         52.52400        24.52859         0.25080
C         51.60575        25.03543        -0.83653
C         52.87333        27.27300        -0.71372
C         51.73390        26.47904        -1.23347
C         52.88046        28.75039        -0.82756
C         51.58695        29.49937        -1.24204
C         52.62825        31.62355        -0.13022
C         51.35977        30.82833        -0.44746
C         52.51507        33.03521         0.16341
C         51.31769        33.73510         0.06743
C         52.45491        35.95284         0.67461
C         51.29236        35.21342         0.14770
C         52.36618        37.35013         0.84082
C         51.07381        38.01337         0.77152
C         52.17476        40.14902         1.50069
C         51.05873        39.51488         0.70884
C         52.16986        41.66944         1.49566
C         50.98605        42.34131         0.98322
C         52.41487        44.29287         0.35289
C         51.05864        43.69222         0.63508
C         52.44835        45.78880         0.15898
C         51.21768        46.52559         0.03829
C         52.38692        48.40312        -0.98584
C         51.18377        47.86648        -0.33637
C         52.46033        49.84316        -1.30241
C         51.23454        50.62948        -1.20284
C         51.20987        51.93732        -1.71642
C         54.82436        23.10538         1.14102
C         53.68235        22.39750         0.88831
C         54.99056        24.48942         0.75819
C         53.88465        25.18977         0.20236
C         55.25721        27.28107        -0.02541
C         53.96155        26.56534        -0.17457
C         55.21278        28.79104         0.06649
C         53.93176        29.51888        -0.12580
C         55.16604        31.69674         0.14765
C         53.85411        30.91569         0.02900
C         55.00974        33.07827         0.76114
C         53.70070        33.78137         0.70079
C         54.83492        35.99836         1.19000
C         53.68091        35.26943         0.85248
C         54.78178        37.40584         1.40965
C         53.53742        38.07943         1.24644
C         54.60791        40.20436         1.94231
C         53.47303        39.47251         1.54263
C         54.55284        41.64075         2.01219
C         53.44734        42.36967         1.60130
C         54.71447        44.47028         1.26988
C         53.53233        43.76332         1.21164
C         54.90036        45.75601         0.59919
C         53.72311        46.37071        -0.02301
C         54.91935        48.35997        -1.24752
C         53.72150        47.60792        -0.83397
C         54.86288        49.63152        -1.74572
C         53.65335        50.38753        -1.71874
C         57.34568        24.47036         1.56398
C         56.24142        25.12366         0.97682
C         57.31699        27.32053         1.47933
C         56.50669        26.51775         0.44396
C         57.64663        28.74904         0.98811
C         56.31158        29.47520         0.82335
C         57.54612        31.66846         1.25038
C         56.26545        30.95326         0.91253
C         57.52550        33.16147         1.28112
C         56.27182        33.89429         0.87407
C         57.31391        36.06899         1.79474
C         56.16691        35.35063         1.18095
C         57.22501        37.47275         1.98673
C         55.95754        38.15202         1.80584
C         57.05583        40.29507         2.44762
C         55.87519        39.53426         2.07387
C         56.99007        41.69493         2.68311
C         55.69089        42.44985         2.55894
C         56.92051        44.59829         2.47942
C         55.94906        43.71764         1.72736
C         57.12593        45.92166         1.80100
C         56.20072        46.33569         0.69159
C         57.99960        47.91727         0.01140
C         56.75259        47.33437        -0.16729
C         58.49746        25.15185         1.94718
C         59.58667        27.28249         2.51035
C         58.55161        26.56499         1.93179
C         59.53922        28.69995         2.60535
C         58.58781        29.46134         1.95461
C         59.54793        31.61492         2.69828
C         58.58056        30.91428         2.03081
C         59.47167        33.07003         2.92950
C         58.44246        33.88511         2.22306
C         59.61440        36.10026         2.57082
C         58.48687        35.37685         2.13923
C         59.57097        37.48221         2.66295
C         58.37722        38.19399         2.40975
C         59.44884        40.40194         2.91193
C         58.30655        39.63437         2.58929
C         59.36743        41.77098         3.11874
C         58.13180        42.43791         3.01826
C         59.27292        44.69677         3.39685
C         57.97932        43.91847         3.36226
C         59.44199        45.90296         2.81249
C         58.47761        46.50872         1.91690
C         58.86428        47.51239         1.05749
O         54.19113        33.11852         1.95432
O         35.51958        31.49740         1.98619
O         52.85830        47.49938        -2.03138
O         27.50472        25.80556        -1.59389
O         52.22863        25.38295        -2.11341
O         41.96877        25.80905         0.27830
O         46.70880        36.48431         1.74054
O         55.80437        30.13114         2.02936
O         36.29672        43.00788        -3.28929
O         42.47626        31.11063        -3.28178
O         33.10866        27.13002         1.93542
O         48.27867        51.06321         0.81677
O         58.14834        32.45159         0.16735
O         35.53977        36.25549         1.05960
O         39.64313        52.69760        -3.29226
O         43.86981        31.55740         0.13927
O         44.06154        41.87491         1.54024
O         40.94967        22.83655        -2.83548
O         46.75660        44.13040        -1.39823
O         42.72354        19.43863         0.20291
O         26.08551        32.01852         3.56648
O         50.81074        35.85057        -1.09185
O         29.78260        30.02361         2.83896
O         29.96517        33.26548         4.16798
O         38.15680        23.05329        -2.38052
O         55.61679        28.11902        -1.17921
O         44.65655        22.60948        -3.11636
O         48.91598        42.66804        -0.93054
O         51.82399        40.85277         2.71131
O         40.27632        36.67332        -3.03873
O         44.69744        40.12451        -1.58219
O         38.54338        46.33186        -3.10503
O         46.73357        21.13675        -2.89249
O         30.76275        35.87319         3.24498
O         35.31728        37.27853        -2.55576
O         56.49214        34.85089        -0.19608
O         52.66804        29.35930        -2.17943
O         26.58252        37.69169         1.05225
O         31.90904        26.84764        -1.57981
O         36.09231        24.68873         1.16910
O         58.24279        33.46294         3.62643
O         30.09195        47.40400         1.65653
O         37.77873        49.57598        -3.33837
O         56.13205        47.69567        -1.36484
O         46.74020        48.68875         1.43091
O         30.58575        32.98418         0.50586
O         39.38145        33.45344        -3.25877
O         41.82083        35.25539        -0.06503
O         49.36039        30.37905        -2.62592
O         35.29425        28.94861         1.93304
O         45.39855        46.24272         1.45291
O         40.77746        28.65673        -2.86795
O         56.37044        45.78133         3.09029
O         32.67186        41.92532        -1.97936
O         41.30100        44.08676         0.86179
O         27.53051        26.66903         1.84394
O         34.17185        46.33631        -3.02219
O         25.20383        45.03376         0.12641
O         44.03754        34.83198        -2.81645
O         48.91805        33.85337        -2.19622
O         51.40526        39.84021        -0.67784
H         50.83229        39.31301        -1.27482
O         33.13395        29.33627        -0.97398
H         32.44280        28.79055        -1.41108
O         41.52126        41.42643         1.16505
H         42.19208        41.39596         1.88575
O         30.30828        40.25935        -0.64207
H         29.50964        40.81365        -0.77241
O         32.39349        29.24510         2.60313
H         31.55135        29.22394         3.11667
O         28.78156        37.85450         4.01657
H         29.58147        37.37478         4.32840
O         36.24011        39.63740        -3.52430
H         35.57879        38.98305        -3.84111
O         38.50558        23.86534         1.18343
H         37.71141        23.95134         1.76388
O         43.54894        28.65935        -3.23621
H         42.77560        28.57347        -3.83494
O         50.58284        27.05220        -3.25781
H         51.12204        26.24773        -3.44855
O         38.05102        31.12091         1.47538
H         37.45078        31.04001         2.25389
O         56.64297        43.33182         0.51008
H         56.00223        42.88476        -0.08294
O         44.87531        50.65329         1.31905
H         45.58312        50.10292         1.74722
O         31.02177        41.92719         2.56053
H         31.58721        41.16477         2.83549
O         46.89753        40.17077         2.45369
H         47.32111        39.37366         2.85404
O         43.77362        29.14928         0.33674
H         43.80010        30.05179         0.79531
O         41.61813        17.36405        -2.67925
H         41.17299        17.98714        -3.29124
O         26.85811        31.71252         0.03480
H         27.62594        31.45798        -0.51859
O         48.59030        22.88690        -3.15222
H         48.22592        22.08045        -3.58948
O         40.40496        50.15883        -3.21683
H         39.56288        49.87529        -3.65385
O         57.49162        43.96311         4.73202
H         56.92512        44.76429         4.80405
O         33.00499        42.86931         1.42427
H         32.50602        42.93575         2.27720
O         42.10122        50.56743         0.95152
H         42.96217        50.52278         1.43676
O         29.49369        46.30680        -1.71062
H         30.13548        46.43601        -2.44089
O         37.17628        35.48837        -3.35348
H         37.92636        35.67440        -3.95745
O         28.10194        46.18160         2.57216
H         28.91873        46.68255         2.82281
O         45.55208        27.23713         0.47262
H         44.82643        27.84109         0.79311
O         55.62308        31.91001        -1.20214
H         55.74554        31.04420        -1.64527
O         40.55556        46.78822         0.96257
H         40.64705        45.87987         1.34230
O         49.31438        41.85481         2.60971
H         50.01367        41.42639         3.15786
O         26.84663        46.78732        -0.80503
H         26.26461        46.04444        -1.09212
O         58.32740        28.74601        -0.27644
H         58.04211        27.94494        -0.78537
O         39.71442        31.04175        -3.54297
H         40.43387        31.22345        -4.18608
O         52.73866        43.74524        -0.98242
H         52.08897        44.10502        -1.62441
O         46.56388        34.50910        -3.10514
H         47.51427        34.69074        -3.28858
O         51.88847        24.98511         1.49596
H         52.44080        24.67422         2.24453
O         35.25763        34.09980         2.36091
H         35.84022        34.89744         2.34540
O         38.64870        51.12894        -0.11156
H         37.74907        50.80056         0.12443
O         47.59727        53.25638        -2.96794
H         46.66430        53.38766        -3.27207
O         41.98911        42.42164        -2.30906
H         41.32729        42.59382        -3.01101
O         50.91947        30.28098         0.84224
H         50.54537        31.02531         1.37376
O         44.94933        53.04657        -2.99663
H         44.12665        53.53286        -3.22396
O         32.67831        39.95065         2.12747
H         33.56327        39.52875         2.16464
O         44.33069        17.75509        -2.62879
H         43.52437        17.35288        -3.03223
O         50.01632        46.11116         2.06081
H         49.78238        47.04348         2.25887
O         41.27744        17.19955         0.96920
H         41.27344        16.44615         1.59441
O         33.38224        24.91934        -2.47929
H         33.06609        25.81617        -2.74063
O         30.06868        25.09543        -2.30248
H         30.25886        26.03162        -2.53265
O         32.70871        33.88821         3.33110
H         33.69205        33.94501         3.40957
O         34.24643        22.37370        -2.54610
H         34.06517        23.28188        -2.89309
O         49.54003        32.68335         1.27329
H         49.30876        33.51631         1.73842
O         32.65089        35.35051        -0.92841
H         31.74055        35.67569        -1.08863
O         56.44226        27.44105         2.62443
H         56.82278        28.10176         3.24151
O         29.83732        43.87109        -1.58846
H         29.26493        44.55819        -2.01264
O         29.62681        24.81401         1.30253
H         29.03679        25.25567         1.95830
O         55.25301        42.89800         3.86795
H         55.21773        42.12215         4.46468
O         48.58370        37.82183         2.52984
H         47.84432        37.16093         2.72851
O         57.35324        26.31599        -0.72437
H         56.77537        26.12010        -1.49207
O         45.17777        18.71287         0.81431
H         44.26824        19.04829         1.02064
O         35.70753        50.25083         0.19440
H         35.35939        51.05548         0.63815
H         22.26239        27.47895         0.17452
H         22.36641        29.80213         1.00202
H         22.43288        31.39549         2.12679
H         22.51328        33.70354         2.85543
H         22.63456        35.61864         3.33892
H         22.69447        38.04098         3.38226
H         22.75569        39.89299         3.46663
H         22.71510        42.30891         3.28973
H         22.64455        44.20536         3.03393
H         22.59954        46.62710         2.72078
H         25.36646        24.04378        -0.84234
H         23.34429        25.33145        -0.28678
H         25.73044        49.97285         1.62411
H         23.70968        48.74058         2.19095
H         27.11583        22.96415        -1.01319
H         27.40793        50.94280         1.38633
H         29.18737        21.66881        -0.89239
H         29.32547        52.10868         0.48210
H         32.77760        19.39981        -0.05637
H         30.76496        20.76195        -0.06899
H         32.65801        54.23313        -1.28061
H         30.63533        53.03133        -0.64903
H         34.43045        18.27064        -0.51687
H         34.32091        55.20100        -1.43328
H         36.50726        17.01729        -0.73547
H         36.40585        56.40250        -1.72392
H         40.17832        14.79466        -0.60727
H         38.13067        16.00299        -1.21910
H         40.24324        58.49830        -1.40622
H         38.10655        57.34835        -1.78275
H         42.68770        14.84102        -0.08157
H         42.69579        58.42628        -0.95882
H         44.82277        15.82820        -0.62424
H         44.78781        57.16920        -0.73858
H         48.72369        18.05050        -0.92452
H         46.61145        16.85474        -0.87661
H         48.48357        54.76171        -0.51441
H         46.40478        56.01678        -0.25698
H         50.14577        19.09162         0.03776
H         50.02321        53.64561        -2.34092
H         52.15030        20.33304         0.58480
H         52.11867        52.37488        -2.14739
H         55.66985        22.57151         1.59101
H         53.67378        21.32317         1.11594
H         55.78076        50.10056        -2.12133
H         53.72008        51.44392        -2.00779
H         57.30986        23.38997         1.75895
H         58.34529        48.65093        -0.72785
H         59.34847        24.58976         2.35932
H         60.43986        26.74811         2.95318
H         60.31117        29.18672         3.21810
H         60.38248        31.08855         3.18300
H         60.38615        33.55752         3.32514
H         60.54112        35.57052         2.83077
H         60.47527        38.01412         2.98513
H         60.43022        39.91846         3.00394
H         60.27915        42.33059         3.36826
H         60.06207        44.31485         4.06127
H         60.39761        46.43549         2.93928
H         59.87471        47.93903         1.12396
