         404
 CSIRO Nanostructure Databank - Neutral Graphene Oxide Data Set
C          2.40694         3.93893        -3.87834
C          1.39226         4.70473        -4.43942
C          1.98197         6.59968        -3.01228
C          1.18437         6.02278        -4.02464
C          1.74964         7.96438        -2.53609
C          0.74484         8.75831        -3.05165
C          1.52635        10.80712        -1.94280
C          0.62371        10.14153        -2.75089
C          1.47321        12.23779        -1.72038
C          0.36398        12.97935        -2.03374
C          1.21943        15.00100        -0.95499
C          0.29726        14.38392        -1.75313
C          1.16284        16.43464        -0.70724
C         -0.03166        17.15474        -0.89772
C          1.13908        19.24969        -0.53596
C         -0.04799        18.53730        -0.77235
C          1.11635        20.73578        -0.59327
C         -0.10013        21.49019        -0.25818
C          1.16189        23.59503        -0.00290
C         -0.06862        22.83245        -0.05718
C          1.15241        25.01659         0.21627
C         -0.05675        25.77323         0.27244
C          1.16725        27.87008         0.57089
C         -0.05121        27.13599         0.45429
C          1.19290        29.29041         0.78895
C         -0.01814        30.08254         0.80625
C          1.18005        32.13039         1.48715
C         -0.02533        31.42217         1.03856
C          1.25880        33.60853         1.56603
C          0.14041        34.40841         1.43404
C          1.41400        36.49635         1.48896
C          0.20575        35.82505         1.39236
C          1.54805        37.89115         1.16609
C          4.35568         3.72619        -2.38596
C          3.24198         4.48564        -2.87329
C          3.84104         6.36842        -1.34387
C          3.00866         5.81905        -2.43258
C          3.85772         7.82331        -1.08310
C          2.61436         8.53074        -1.47765
C          3.67966        10.69843        -0.56682
C          2.52144        10.01578        -1.19537
C          3.67966        12.05053        -0.46450
C          2.68913        12.95968        -1.17089
C          3.53476        14.98371         0.06739
C          2.29367        14.17002        -0.28104
C          3.52872        16.35267         0.03612
C          2.34590        17.12575        -0.34401
C          3.60920        19.28120        -0.13827
C          2.35567        18.54970        -0.33387
C          3.64701        20.69915        -0.14870
C          2.42722        21.48172        -0.42739
C          3.62072        23.58118         0.18735
C          2.39189        22.90880        -0.05312
C          3.62239        24.99326         0.34803
C          2.38525        25.71426         0.35128
C          3.63442        27.83708         0.55094
C          2.39056        27.13900         0.50834
C          3.63816        29.24515         0.64372
C          2.43832        29.95849         0.85529
C          3.74538        32.14876         1.18347
C          2.50341        31.36759         1.30909
C          3.83002        33.48260         1.61202
C          2.56058        34.20333         1.92025
C          3.92548        36.40171         1.68772
C          2.62448        35.76405         1.88015
C          3.99337        37.74942         1.34424
C          2.77285        38.49099         1.11046
C          6.48212         3.56256        -1.16933
C          5.28874         4.24566        -1.49052
C          6.13197         6.29821        -0.23492
C          5.02224         5.56030        -0.86096
C          6.05879         7.66551         0.01184
C          4.86394         8.42801        -0.36868
C          6.02307        10.56179         0.38201
C          4.69187         9.84128         0.20303
C          6.04325        11.99670         0.41918
C          4.74315        12.71917         0.33023
C          6.01289        14.87821         1.01386
C          4.69002        14.19649         0.59449
C          6.00172        16.39015         0.78520
C          4.72895        17.12375         0.44498
C          6.03589        19.23508         0.27603
C          4.80109        18.56404         0.11692
C          6.06044        20.66171         0.25741
C          4.84633        21.39605         0.12234
C          6.06590        23.51511         0.48920
C          4.85907        22.83992         0.24463
C          6.09026        24.95786         0.59564
C          4.86378        25.69328         0.48812
C          6.12147        27.80473         0.61943
C          4.87931        27.10959         0.53904
C          6.16874        29.23081         0.53714
C          4.89905        29.97725         0.42821
C          6.22893        32.13350         0.84519
C          4.93725        31.48144         0.67128
C          6.28908        33.45650         1.28544
C          5.08868        34.15833         1.65604
C          6.48760        36.35293         1.90709
C          5.14827        35.61834         1.95394
C          6.48463        37.77702         1.41495
C          5.25835        38.39310         1.17745
C          8.67748         3.45888        -0.09562
C          7.47427         4.13027        -0.34170
C          8.49792         6.23051         0.78229
C          7.26706         5.48545         0.21983
C          8.46011         7.70892         0.71454
C          7.24430         8.38308         0.45745
C          8.46624        10.53700         0.79659
C          7.20127         9.82595         0.53205
C          8.50201        12.05260         0.67275
C          7.22311        12.74295         0.44424
C          8.43097        14.88703         0.31118
C          7.24174        14.18737         0.45317
C          8.47664        16.33997         0.35547
C          7.28280        17.07883         0.51441
C          8.50807        19.19825         0.38490
C          7.27272        18.49667         0.40355
C          8.51809        20.63039         0.42100
C          7.29796        21.35793         0.39540
C          8.52971        23.45000         0.73047
C          7.30919        22.78074         0.53728
C          8.53611        24.87680         1.19836
C          7.29972        25.64455         0.79928
C          8.57053        27.77763         0.85402
C          7.33918        27.06851         0.77493
C          8.60251        29.17239         0.67516
C          7.38482        29.91042         0.54413
C          8.73330        32.03554         0.70193
C          7.43124        31.40710         0.29414
C          8.79591        33.41139         1.01900
C          7.58474        34.13577         1.30795
C          8.97290        36.03639         1.81093
C          7.68317        35.48582         1.66738
C          8.96213        38.16547         1.35066
C          7.65111        38.49782         0.98964
C         11.06492         3.40656         0.57871
C          9.82334         4.11983         0.44076
C         10.98503         6.18991         1.15993
C          9.76864         5.49183         0.74943
C         10.94196         7.71674         1.17619
C          9.70099         8.42815         0.79681
C         10.98069        10.56287         0.59428
C          9.74184         9.81717         0.68289
C         10.95369        12.00037         0.29361
C          9.76704        12.70465         0.27482
C         10.96726        14.93238        -0.19182
C          9.67382        14.14986        -0.05283
C         10.97124        16.36627         0.15061
C          9.72664        17.04887         0.26563
C         10.97706        19.17658         0.45131
C          9.73711        18.47413         0.37392
C         10.97796        20.60450         0.54049
C          9.75268        21.32796         0.50936
C         11.00138        23.44555         0.77335
C          9.75917        22.74998         0.66121
C         11.02897        24.89751         0.84484
C          9.82295        25.59625         0.90894
C         11.07408        27.72346         0.65980
C          9.84763        27.06238         1.21259
C         11.07978        29.11211         0.45384
C          9.86642        29.85802         0.56829
C         11.18305        31.93470         0.44858
C          9.91940        31.27575         0.56958
C         11.25818        33.33875         0.62820
C         10.07526        34.06871         1.01183
C         11.40346        36.24564         1.20009
C         10.15051        35.44307         1.33819
C         11.37294        37.70464         0.84763
C         10.17864        38.49209         0.73542
C         13.51180         3.33740         0.93711
C         12.27431         4.05094         0.83086
C         13.46453         6.19916         0.94531
C         12.28424         5.50173         0.99390
C         13.53075         7.66840         1.07075
C         12.23151         8.47278         1.11777
C         13.47280        10.55653         0.40194
C         12.19090         9.87992         0.66729
C         13.51895        12.03642         0.42032
C         12.24875        12.68786         0.02564
C         13.50341        14.92705         0.18842
C         12.27145        14.19355        -0.16253
C         13.46563        16.33213         0.33519
C         12.19887        17.04069         0.31627
C         13.43549        19.15340         0.70997
C         12.20776        18.45916         0.48501
C         13.40223        20.56080         0.89754
C         12.19840        21.30192         0.74258
C         13.44071        23.41317         1.15305
C         12.21282        22.73384         0.82833
C         13.57177        24.93230         1.21661
C         12.28024        25.58771         0.78826
C         13.45515        27.60872         0.01213
C         12.27838        26.98823         0.51743
C         13.46716        29.00786        -0.22921
C         12.29809        29.76712         0.09865
C         13.52129        31.86224        -0.34106
C         12.34282        31.18713         0.07594
C         13.55939        33.28611        -0.22203
C         12.48607        33.99946         0.38564
C         13.69198        36.15557        -0.03992
C         12.62454        35.44307         0.66417
C         13.71217        37.58272        -0.03274
C         12.55748        38.30134         0.41022
C         15.99609         3.36374         1.07204
C         14.74034         4.00342         0.93186
C         16.02481         6.21063         0.66881
C         14.71951         5.46162         0.67292
C         16.01183         7.68212         0.80623
C         14.80000         8.35166         0.76460
C         15.98434        10.57804         0.81023
C         14.76205         9.79715         0.48486
C         15.99306        12.04201         0.56771
C         14.70859        12.73771         0.47206
C         15.93295        14.88483         0.50969
C         14.72679        14.19912         0.37710
C         15.95908        16.35040         0.38758
C         14.67979        17.06246         0.51518
C         15.91407        19.16481         1.09168
C         14.69006        18.45352         0.74664
C         15.73837        20.47733         1.60081
C         14.56154        21.22343         1.39781
C         16.41631        23.76250         1.31037
C         14.47524        22.63459         1.61913
C         16.09136        24.96481         0.55638
C         14.81474        25.50816         0.48818
C         15.76558        27.41646        -1.00392
C         14.53501        26.65874        -0.47926
C         15.73664        28.91734        -1.28657
C         14.58849        29.70054        -0.79870
C         15.72934        31.80141        -1.52798
C         14.63172        31.11138        -0.87813
C         15.60785        33.25266        -1.60192
C         14.65049        33.98680        -0.81854
C         15.64250        36.15831        -1.49746
C         14.65492        35.42831        -0.77985
C         15.75896        37.58048        -1.39232
C         14.78507        38.27399        -0.63982
C         18.46448         3.39082         1.37136
C         17.22131         4.06944         1.12383
C         18.45959         6.21601         1.13189
C         17.26473         5.49019         0.98321
C         18.47524         7.66207         1.03273
C         17.26421         8.36273         0.88526
C         18.54787        10.53461         0.84030
C         17.26774         9.82994         1.00009
C         18.48896        11.93495         0.25740
C         17.19610        12.69333         0.56449
C         18.46499        14.90169         0.96912
C         17.18606        14.15607         0.76913
C         18.49132        16.38021         0.87374
C         17.25624        17.13478         0.58964
C         18.47509        19.26033         0.99396
C         17.21587        18.56740         0.98743
C         18.63039        20.71111         0.92842
C         17.65838        21.59681         1.45123
C         18.68233        23.59279         0.39951
C         17.53214        22.96375         1.06409
C         18.46827        24.88462        -0.26177
C         17.21904        25.54912        -0.20141
C         18.23702        27.48747        -1.34000
C         17.09101        26.79575        -0.85932
C         18.15142        28.87177        -1.78055
C         16.99173        29.63590        -1.62654
C         18.08724        31.68178        -2.47610
C         16.91121        31.06496        -1.93331
C         18.13842        32.94792        -3.10685
C         16.32321        34.04149        -2.52972
C         17.38262        36.17835        -3.20743
C         16.44642        35.45581        -2.43397
C         17.68191        37.53882        -2.94101
C         16.82144        38.23955        -2.07656
C         19.64014         4.08406         1.50122
C         20.86887         6.25146         1.54543
C         19.68028         5.51443         1.39808
C         20.88205         7.64637         1.42942
C         19.71410         8.38189         1.17081
C         20.98025        10.58332         0.88134
C         19.72661         9.83558         0.96514
C         21.01058        11.92048         0.69496
C         19.78791        12.72551         0.45827
C         20.95698        14.95989         1.24111
C         19.77745        14.20424         0.74460
C         20.89865        16.30706         1.33083
C         19.67668        17.05050         1.02791
C         20.87121        19.10373         0.40463
C         19.68755        18.49572         0.82977
C         20.90660        20.46227         0.06248
C         19.80799        21.27428         0.32403
C         20.79830        23.30603        -0.94093
C         19.89241        22.74304         0.07561
C         20.69242        24.60752        -1.31103
C         19.56634        25.45069        -0.94857
C         20.70351        27.50297        -1.71976
C         19.48979        26.80729        -1.35841
C         20.67132        28.78553        -2.13548
C         19.38621        29.47080        -2.33633
C         20.60274        31.76237        -2.61378
C         19.36825        30.94968        -2.62904
C         20.55592        33.09443        -2.87319
C         19.31421        33.71706        -3.26994
C         20.26858        36.04332        -3.63251
C         19.27300        35.08950        -3.71318
C         20.03513        37.45402        -3.78473
C         18.88119        38.14089        -3.49908
O         19.86252        23.56140         1.29768
O         13.01249         8.25107         2.33826
O         16.91812        33.43252        -3.62327
O          8.50387        11.40273         1.98897
O         16.75669        16.84952        -0.77424
O         17.73708        14.45032         2.16496
O         10.17388        14.57488        -1.36835
O          9.07439        37.27017         2.43741
O         15.45490        27.91360        -2.35114
O          5.84734        36.06103         3.18268
O         16.75383        21.05931         2.38063
O         19.95490        13.70963        -0.63456
O          1.85750        31.50898         2.62603
O          4.25433        13.22820         1.62706
O         15.37519         5.80392        -0.60406
O          4.78894        30.88753        -0.73836
O          7.50038         5.61154         1.65281
O         10.80042         6.95226         2.40733
O          2.54314        34.99977         3.12802
O         15.52805        23.29609         2.28538
O          1.89131         9.03340        -0.28999
O          3.77205         5.58880        -0.09321
O         12.39908        13.29449        -1.30838
O          5.17521        16.97827         1.85437
O         12.47496        35.83320         2.07949
O         16.45452        10.29532         2.17542
O         19.28237        29.95499        -3.73385
O          1.84741        21.24313        -1.76440
O         18.03430        35.53169        -4.25395
O         14.16823        10.05606        -0.83417
O         13.72123        25.30888         2.62503
H         14.45291        24.75601         2.98915
O          1.70900        13.69110         0.94665
H          2.44961        13.36102         1.51759
O         18.40268        11.68460        -1.18272
H         18.81387        12.46048        -1.63073
O         13.94272        25.98216        -1.63398
H         14.10393        26.57384        -2.40772
O          4.11918         9.64860         1.52115
H          3.22765         9.25125         1.38850
O          7.38253        31.57747        -1.17184
H          6.46771        31.30548        -1.44089
O          6.17347        14.69308         2.43680
H          5.54465        15.30750         2.87835
O          8.46771        24.80595         2.67715
H          8.78547        25.68279         3.01326
O          9.93682        27.16021         2.70995
H         10.83895        26.85922         2.95880
O          3.40944        13.52798        -2.30763
H          3.45874        12.84825        -3.01167
H          2.57704         2.90719        -4.21704
H          0.74920         4.27573        -5.22034
H          0.37412         6.59905        -4.48987
H          0.04385         8.34742        -3.79036
H         -0.16185        10.70526        -3.27258
H         -0.51191        12.50599        -2.49944
H         -0.53204        14.95474        -2.19489
H         -0.96479        16.62515        -1.13094
H         -0.99183        19.07828        -0.92332
H         -1.05216        20.95152        -0.14820
H         -1.01475        23.34651         0.16068
H         -1.02437        25.26420         0.17051
H         -1.01361        27.66268         0.50305
H         -0.96617        29.59806         0.53457
H         -0.95823        31.98757         0.90401
H         -0.83885        33.94097         1.25913
H         -0.70946        36.38905         1.16290
H          0.63638        38.46683         0.94931
H          4.52713         2.72652        -2.81284
H          2.85508        39.55776         0.85760
H          6.66370         2.57126        -1.61105
H          5.25741        39.43437         0.82170
H          8.78749         2.42207        -0.44631
H          7.49354        39.34997         0.31074
H         11.05853         2.31808         0.42125
H         10.21881        39.37435         0.07854
H         13.48596         2.23888         0.99647
H         12.54534        39.38496         0.21880
H         16.01623         2.27104         1.20403
H         14.80965        39.37287        -0.60009
H         18.45714         2.29517         1.46692
H         16.97630        39.31640        -1.91211
H         20.57874         3.54475         1.69632
H         21.80929         5.71997         1.75132
H         21.84178         8.16639         1.55414
H         21.92974        10.04545         1.00827
H         21.97573        12.44593         0.66315
H         21.89321        14.42634         1.45782
H         21.78535        16.86983         1.65629
H         21.77274        18.49333         0.26065
H         21.82965        20.89162        -0.34886
H         21.58342        22.67421        -1.37988
H         21.41830        25.00691        -2.03341
H         21.66561        26.98392        -1.61531
H         21.59687        29.29465        -2.43521
H         21.56941        31.27695        -2.42559
H         21.48036        33.68872        -2.87680
H         21.29999        35.72943        -3.41627
H         20.92319        38.06134        -4.02390
H         18.91729        39.24081        -3.52523
