         600
 CSIRO Nanostructure Databank - Neutral Graphene Oxide Data Set
C         23.10537        27.50317        -1.76730
C         23.09216        28.86967        -1.61272
C         23.06950        31.76524        -1.26096
C         23.05582        33.13367        -1.12283
C         23.04723        36.02599        -1.00177
C         23.03563        37.40466        -0.91371
C         23.18367        40.34570        -1.23728
C         23.30692        41.68546        -1.39395
C         23.40846        44.61040        -1.52459
C         23.48195        45.98146        -1.70689
C         25.52777        24.66429        -1.72849
C         24.34621        25.36234        -1.82790
C         25.53647        27.47172        -1.41696
C         24.32240        26.77474        -1.67179
C         25.51760        28.89360        -1.25895
C         24.28946        29.59798        -1.35419
C         25.49515        31.73466        -0.94343
C         24.28179        31.03159        -1.18791
C         25.47661        33.15735        -0.77381
C         24.25106        33.86061        -0.88579
C         25.42695        36.00046        -0.41890
C         24.23386        35.29905        -0.76320
C         25.38786        37.41757        -0.24194
C         24.18839        38.11050        -0.52144
C         25.34382        40.31847         0.11906
C         24.10059        39.58060        -0.37958
C         25.45347        41.75309        -0.21999
C         24.41477        42.43534        -0.83098
C         25.67714        44.58596        -0.59238
C         24.49099        43.88089        -0.98826
C         25.77127        45.99719        -0.82412
C         24.66270        46.69090        -1.37896
C         25.90072        48.77830        -1.28487
C         24.75228        48.09879        -1.59607
C         28.04476        23.18787        -1.47365
C         28.00211        24.60007        -1.34919
C         26.76050        25.32937        -1.47061
C         27.98664        27.44589        -1.07205
C         26.76127        26.74132        -1.32077
C         27.96404        28.86735        -0.92191
C         26.74094        29.60158        -1.01138
C         27.95913        31.73031        -0.63830
C         26.73619        31.01871        -0.86410
C         27.93828        33.17502        -0.46692
C         26.69129        33.88014        -0.50582
C         27.87281        36.01067         0.02161
C         26.66561        35.28522        -0.29780
C         27.82486        37.39145         0.28458
C         26.59494        38.13101         0.15660
C         27.83166        40.27746         0.44139
C         26.56425        39.52177         0.34031
C         27.77540        41.71576         0.85029
C         26.59951        42.49190         0.33403
C         27.99594        44.57936         0.33147
C         26.75503        43.91614         0.03359
C         28.09482        46.00463         0.04354
C         26.97634        46.70033        -0.49740
C         28.24139        48.82471        -0.43951
C         27.04123        48.11072        -0.74046
C         28.32781        50.24304        -0.59636
C         30.45041        23.15519        -1.07486
C         29.22672        22.49065        -1.34419
C         30.44113        24.56892        -0.94658
C         29.21550        25.29644        -1.09014
C         30.43433        27.43194        -0.74395
C         29.20939        26.72615        -0.96614
C         30.40361        28.83707        -0.64747
C         29.18178        29.56848        -0.68963
C         30.40240        31.68899        -0.26088
C         29.16750        30.99649        -0.54521
C         30.40339        33.17040        -0.37929
C         29.13168        33.91097        -0.28776
C         30.36777        36.03489         0.20890
C         29.14260        35.30819        -0.00460
C         30.36390        37.38909         0.57718
C         29.04798        38.07509         0.86269
C         30.35819        40.29981         0.92254
C         29.12264        39.55406         0.54467
C         30.35103        41.67692         1.05202
C         29.05186        42.43538         1.29499
C         30.29948        44.63689         1.35634
C         29.09666        43.88534         0.84918
C         30.46210        46.02120         0.77210
C         29.31735        46.70517         0.28138
C         30.58961        48.83126         0.31265
C         29.38620        48.12000         0.03206
C         30.63117        50.26190         0.20662
C         29.46275        50.93472        -0.26650
C         32.91297        20.30824        -1.02626
C         31.73688        21.01368        -1.13599
C         32.88797        23.10045        -0.60100
C         31.69145        22.42087        -0.93527
C         32.86798        24.53629        -0.43411
C         31.66227        25.26531        -0.64839
C         32.87903        27.34845        -0.23710
C         31.67197        26.68942        -0.55937
C         32.93778        28.82191        -0.28047
C         31.65915        29.58072        -0.49446
C         32.82587        31.68227         0.30011
C         31.58758        31.00283        -0.13495
C         32.86102        33.18072         0.25197
C         31.68620        33.91727        -0.30534
C         32.89967        35.97322         0.50856
C         31.69921        35.44845        -0.23689
C         32.76772        37.26747         1.26568
C         31.56543        38.11422         0.85303
C         32.78436        40.26441         1.27085
C         31.57773        39.52988         1.02255
C         32.81997        41.66338         1.37878
C         31.58078        42.42130         1.27478
C         32.78955        44.57006         1.69998
C         31.57224        43.81287         1.34225
C         32.87814        46.00010         1.34815
C         31.68971        46.69620         0.92821
C         32.96437        48.81524         0.95871
C         31.75352        48.11459         0.71187
C         32.98081        50.24873         0.95037
C         31.79805        50.97191         0.59547
C         32.88723        53.08917         1.16815
C         31.82521        52.41376         0.66052
C         35.41748        18.82157        -0.77853
C         35.37482        20.23158        -0.60097
C         34.13398        20.95776        -0.70056
C         35.32893        23.02457        -0.11410
C         34.11519        22.36322        -0.47839
C         35.25695        24.44256         0.26763
C         34.04797        25.22326        -0.04677
C         35.33287        27.36040         0.24233
C         34.06979        26.63221         0.05439
C         35.35694        28.77241         0.29377
C         34.05074        29.48304         0.50724
C         35.31508        31.66206         0.35181
C         34.11479        30.97185         0.30689
C         35.33729        33.12139         0.37342
C         34.15836        33.86146         0.28004
C         35.36528        35.94970         0.77679
C         34.10825        35.28409         0.50224
C         35.37124        37.34417         1.00903
C         34.09082        38.03056         1.34630
C         35.31540        40.27559         1.11244
C         34.05947        39.51930         1.39683
C         35.29400        41.68458         1.55874
C         34.08576        42.34696         1.64058
C         35.35676        44.56173         1.74678
C         34.09767        43.80683         1.91784
C         35.35870        45.94233         1.58088
C         34.11171        46.66683         1.40145
C         35.38732        48.79347         1.35600
C         34.15847        48.09450         1.24399
C         35.39594        50.22498         1.41818
C         34.16559        50.93340         1.32068
C         35.40367        53.14000         1.86417
C         34.09219        52.37692         1.60944
C         35.46839        54.58895         1.66685
C         37.84675        18.79734        -0.54495
C         36.60498        18.12971        -0.74079
C         37.83163        20.21108        -0.33149
C         36.59397        20.92387        -0.34175
C         37.80540        23.06256         0.09573
C         36.55949        22.34165        -0.08496
C         37.82492        24.46949         0.20714
C         36.57762        25.20628         0.41495
C         37.80263        27.35851         0.17281
C         36.56548        26.66482         0.26212
C         37.80819        28.79427         0.18628
C         36.57697        29.49838         0.28709
C         37.79680        31.64771         0.38916
C         36.57677        30.94179         0.35544
C         37.80927        33.08998         0.48879
C         36.59167        33.80961         0.50311
C         37.82626        35.93394         0.77174
C         36.58809        35.23368         0.67271
C         37.82574        37.35379         0.90986
C         36.58544        38.04280         1.01467
C         37.87101        40.18958         1.32383
C         36.59868        39.51896         1.02075
C         37.85999        41.56677         1.81597
C         36.56649        42.31957         1.94805
C         37.90393        44.52854         1.67296
C         36.62376        43.84642         1.96344
C         37.86276        45.94009         1.47505
C         36.61843        46.65342         1.49804
C         37.85217        48.78562         1.28172
C         36.62252        48.06882         1.41052
C         37.85686        50.21819         1.27765
C         36.64341        50.91674         1.50093
C         37.93163        53.12586         1.26760
C         36.68350        52.36806         1.72897
C         37.81878        54.55639         0.92922
C         36.58894        55.22905         1.21934
C         40.36851        15.96208        -0.58883
C         39.17073        16.66802        -0.70434
C         40.33389        18.83433        -0.45876
C         39.08551        18.07071        -0.58382
C         40.29525        20.25300        -0.07676
C         39.06522        20.93358        -0.09973
C         40.27800        23.07296         0.15876
C         39.04473        22.35541         0.05782
C         40.28482        24.49250         0.14931
C         39.04246        25.20866         0.13221
C         40.29498        27.35601        -0.23492
C         39.02339        26.62717         0.10110
C         40.28132        28.81770         0.13274
C         39.05291        29.51505         0.20789
C         40.27850        31.65049         0.38372
C         39.04549        30.93922         0.33961
C         40.28544        33.08372         0.49584
C         39.05143        33.79346         0.56244
C         40.28866        35.93476         0.72161
C         39.05833        35.21981         0.68662
C         40.28421        37.36262         0.82871
C         39.06433        38.07129         0.93923
C         40.32632        40.22418         1.13793
C         39.07179        39.50178         1.16619
C         40.36038        41.63066         1.22987
C         39.17574        42.35811         1.70880
C         40.32618        44.51349         1.21292
C         39.12015        43.82780         1.54856
C         40.30870        45.92968         1.08408
C         39.08194        46.64289         1.23128
C         40.26524        48.77080         0.79191
C         39.06924        48.06794         1.12332
C         40.22260        50.17339         0.60690
C         39.06598        50.91546         0.91152
C         40.18294        53.04065         0.25241
C         39.06902        52.34944         0.74159
C         40.16511        54.48411         0.14719
C         38.95285        55.22227         0.41615
C         40.11066        57.30336        -0.13784
C         38.95999        56.64033         0.19507
C         42.82892        15.95803        -0.21741
C         41.60248        16.60627        -0.32113
C         42.74178        18.72532         0.50426
C         41.62753        18.08658        -0.29615
C         42.75177        20.23350         0.39617
C         41.52648        20.93641         0.18350
C         42.73272        23.07100         0.46886
C         41.51215        22.35853         0.26598
C         42.72449        24.49158         0.49081
C         41.52583        25.20991         0.28160
C         42.75361        27.35867         0.31701
C         41.53276        26.63663         0.23066
C         42.75486        28.79566         0.23119
C         41.50799        29.51355         0.21952
C         42.75392        31.64888         0.35834
C         41.51253        30.94088         0.32858
C         42.75655        33.07867         0.44933
C         41.52005        33.79108         0.53310
C         42.75625        35.92910         0.67438
C         41.52796        35.22244         0.64502
C         42.75781        37.36914         0.74048
C         41.52826        38.07951         0.81459
C         42.75971        40.21569         0.75020
C         41.53762        39.50310         0.89427
C         42.76994        41.64284         0.75526
C         41.56262        42.35551         0.99177
C         42.77809        44.48816         0.80687
C         41.56583        43.79231         1.01590
C         42.77217        45.93474         0.72265
C         41.52461        46.64440         0.80232
C         42.71548        48.76311         0.36290
C         41.49676        48.04689         0.62967
C         42.69296        50.15181         0.11683
C         41.36848        50.82767        -0.11390
C         42.59680        52.98965        -0.26981
C         41.41862        52.32667        -0.00318
C         42.55314        54.42858        -0.70451
C         41.32776        55.17051        -0.23460
C         42.55862        57.27452        -0.53144
C         41.33628        56.59056        -0.32455
C         44.04381        16.71098        -0.10858
C         45.33395        18.87734         0.19327
C         44.06136        18.05296         0.16979
C         45.16040        20.12664         1.09178
C         43.93704        20.93269         0.67260
C         45.21780        23.06774         0.61807
C         43.95104        22.34559         0.65029
C         45.23186        24.49034         0.54047
C         43.97317        25.22679         0.89383
C         45.21217        27.36319         0.38990
C         43.98597        26.67220         0.48392
C         45.21952        28.78707         0.27209
C         43.98238        29.50185         0.26403
C         45.22557        31.64087         0.30454
C         43.98473        30.93754         0.29641
C         45.22977        33.07355         0.38373
C         43.99080        33.78463         0.45944
C         45.22557        35.90919         0.57196
C         43.99859        35.21482         0.57203
C         45.27308        37.36689         0.93355
C         43.97870        38.08979         0.70843
C         45.21863        40.21376         0.42580
C         43.98663        39.49568         0.63758
C         45.21534        41.62721         0.34223
C         43.99654        42.35070         0.55719
C         45.24393        44.46059         0.40324
C         44.00643        43.76996         0.59444
C         45.29559        45.93332         0.71611
C         43.97181        46.63908         0.53911
C         45.17136        48.75714         0.10520
C         43.96116        48.05223         0.35641
C         45.15096        50.17909        -0.05888
C         43.89372        50.87516        -0.07822
C         45.07771        53.01653        -0.40258
C         43.86824        52.29246        -0.28831
C         45.07609        54.46262        -0.47429
C         43.84030        55.18953        -0.50339
C         43.77746        56.58866        -0.54089
C         47.67322        18.75002         0.99003
C         46.53358        18.09591         0.68141
C         47.74690        20.19454         0.87546
C         46.47680        20.97502         1.18305
C         47.65490        23.04100         0.22211
C         46.40715        22.33741         0.54784
C         47.68264        24.50886         0.28881
C         46.45209        25.20857         0.41248
C         47.68583        27.33600         0.21820
C         46.45802        26.64240         0.38293
C         47.68655        28.77866         0.16376
C         46.46228        29.49152         0.21713
C         47.69206        31.63804         0.22384
C         46.45678        30.92851         0.23575
C         47.70031        33.06882         0.30056
C         46.45952        33.77941         0.38985
C         47.67354        35.94624         0.37230
C         46.45910        35.21766         0.45908
C         47.66916        37.36260         0.20348
C         46.47054        38.08477         0.37784
C         47.62499        40.19066        -0.15166
C         46.43589        39.48988         0.22657
C         47.61839        41.61365        -0.23987
C         46.42761        42.33443         0.04756
C         47.65464        44.49471        -0.20558
C         46.42078        43.77168         0.08026
C         47.65450        45.90539        -0.23529
C         46.44583        46.64926         0.05349
C         47.56627        48.78251        -0.67230
C         46.39333        48.01795        -0.10391
C         47.65566        50.16750        -0.03671
C         46.35373        50.91219        -0.21238
C         47.57182        53.04167        -0.48096
C         46.33577        52.31259        -0.36716
C         47.52472        54.44072        -0.50526
C         46.31445        55.13201        -0.48318
C         50.23005        20.20931         0.72104
C         48.94571        20.85605         0.67928
C         50.21062        23.07668         0.44464
C         48.96520        22.29277         0.29768
C         50.18582        24.47963         0.30153
C         48.91676        25.20027         0.21190
C         50.17555        27.32799        -0.24184
C         48.90705        26.61431         0.14317
C         50.16103        28.80208         0.05687
C         48.93241        29.49194         0.11988
C         50.15344        31.63909         0.14478
C         48.92482        30.92611         0.17218
C         50.14852        33.07066         0.17347
C         48.93103        33.76804         0.28551
C         50.16152        35.94408        -0.03743
C         48.97800        35.24588         0.58125
C         50.11201        37.31199        -0.37068
C         48.86495        38.05336        -0.21037
C         49.95484        40.13955        -1.02131
C         48.80923        39.43489        -0.42093
C         49.97166        41.61072        -0.96158
C         48.83753        42.32334        -0.59445
C         50.03691        44.48773        -0.81493
C         48.84650        43.77835        -0.55290
C         50.08207        45.90585        -0.71760
C         48.86579        46.62276        -0.51417
C         50.07707        48.74662        -0.71525
C         48.87436        48.03849        -0.57328
C         50.07108        50.20244        -0.74435
C         48.87031        50.91907        -0.52345
C         50.03968        53.00530        -0.92870
C         48.83520        52.32290        -0.62025
C         51.39159        20.93250         0.72426
C         52.65182        23.09948         0.75802
C         51.42436        22.37127         0.65412
C         52.64807        24.51977         0.61364
C         51.41792        25.21545         0.37332
C         52.63428        27.35563         0.30512
C         51.43024        26.62782         0.21854
C         52.63352        28.79326         0.19164
C         51.39006        29.50196         0.11431
C         52.61967        31.65102         0.10121
C         51.39053        30.93365         0.13029
C         52.60875        33.08351         0.01070
C         51.38910        33.78890         0.06161
C         52.58242        35.90189        -0.42391
C         51.37297        35.21850        -0.11812
C         52.53018        37.27587        -0.77588
C         51.30835        37.96734        -0.79987
C         52.51154        40.17298        -1.37765
C         51.25232        39.37960        -1.25831
C         52.48105        41.53668        -1.44993
C         51.19742        42.28484        -1.42161
C         52.54591        44.49270        -1.23941
C         51.24012        43.79543        -1.31643
C         52.54774        45.90101        -1.08455
C         51.30902        46.61956        -0.90013
C         52.54167        48.76087        -1.04056
C         51.31034        48.03538        -0.86956
C         52.53054        50.18069        -1.10672
C         51.27933        50.90716        -0.98769
C         51.22839        52.31878        -1.08059
C         55.07354        23.14409         1.06370
C         53.89440        22.44324         0.99732
C         55.10930        24.55755         0.89508
C         53.87826        25.24727         0.67944
C         55.09680        27.39417         0.55457
C         53.87424        26.66903         0.52357
C         55.09801        28.81812         0.38942
C         53.85549        29.51405         0.23910
C         55.08812        31.66293         0.10580
C         53.85455        30.94429         0.14070
C         55.08380        33.08740        -0.06564
C         53.84665        33.79638        -0.13956
C         55.06870        35.90183        -0.53447
C         53.83506        35.19471        -0.38027
C         55.06846        37.29261        -0.86692
C         53.78457        37.92788        -1.21845
C         55.06365        40.13191        -1.41120
C         53.78307        39.41837        -1.52713
C         55.05487        41.58269        -1.66136
C         53.72192        42.32555        -1.70368
C         54.99466        44.47379        -1.40161
C         53.74851        43.78417        -1.43039
C         55.00139        45.89646        -1.30111
C         53.77776        46.61320        -1.16953
C         54.99926        48.76436        -1.28110
C         53.77556        48.04957        -1.15324
C         54.95660        50.17642        -1.34264
C         53.75864        50.86174        -1.27007
C         57.59858        24.63060         1.12872
C         56.34559        25.28713         0.92910
C         57.56164        27.43131         0.75187
C         56.33300        26.70017         0.74711
C         57.56574        28.84770         0.56102
C         56.32215        29.54282         0.39158
C         57.56030        31.68217         0.17795
C         56.32070        30.96268         0.22199
C         57.55564        33.09772        -0.02882
C         56.31123        33.79879        -0.15811
C         57.53415        35.93303        -0.48598
C         56.30289        35.20979        -0.38437
C         57.51704        37.34266        -0.72315
C         56.26662        38.02183        -0.93445
C         57.50694        40.19660        -1.12849
C         56.25482        39.45738        -1.17282
C         57.50793        41.62809        -1.23909
C         56.28598        42.34658        -1.40920
C         57.49082        44.47896        -1.33970
C         56.25327        43.75202        -1.40751
C         57.48041        45.90829        -1.35850
C         56.24374        46.62287        -1.33692
C         57.49762        48.72742        -1.37597
C         56.25197        48.04113        -1.33636
C         58.77981        25.33023         1.13583
C         60.00771        27.47182         0.93532
C         58.79242        26.74209         0.94228
C         60.00761        28.83729         0.73795
C         58.79800        29.55665         0.54508
C         59.99804        31.73031         0.26358
C         58.79526        30.98900         0.33011
C         59.99248        33.09643         0.04902
C         58.78302        33.81302        -0.10404
C         59.96979        35.98514        -0.42700
C         58.77344        35.24407        -0.33627
C         59.95226        37.35502        -0.63475
C         58.74131        38.06383        -0.77802
C         59.93745        40.25026        -0.91694
C         58.72695        39.50810        -0.95251
C         59.94455        41.62191        -1.03111
C         58.73698        42.34961        -1.18403
C         59.94506        44.53392        -1.30062
C         58.72889        43.78598        -1.28012
C         59.93889        45.90539        -1.35817
C         58.70980        46.62384        -1.37232
C         58.69197        48.04268        -1.39285
O         32.57433        32.49971         1.52391
O         51.00982        43.13075        -2.61243
O         35.90744        40.07552        -0.21595
O         50.31634        39.60811        -2.35736
O         53.73593        38.41810        -2.60344
O         54.40285        41.94717        -2.93890
O         34.55700        52.71894         2.97175
O         38.71019        41.79958         2.97970
O         35.81514        24.73448         1.58977
O         34.18448        38.73609         2.64523
O         36.52965        43.05439         3.20361
O         26.71878        42.04696         1.79299
O         28.66585        40.00523        -0.77228
O         37.68612        52.81308         2.69295
O         24.20316        40.03021         1.00507
O         33.28660        44.24791         3.04898
O         41.31655        18.65993        -1.58813
O         32.66274        29.37079        -1.59681
O         48.32062        22.50669        -1.01223
O         31.22788        33.48459        -1.62155
O         41.06331        50.59323        -1.55097
H         41.70190        51.12825        -2.07127
O         28.99152        42.46299         2.76786
H         28.03018        42.51709         2.99636
O         45.46665        37.38185         2.41330
H         44.65286        37.00496         2.81202
O         45.58410        19.36697        -1.14746
H         45.64048        18.59956        -1.75347
O         33.66900        29.28125         1.91034
H         34.30816        29.76730         2.47299
O         47.83601        49.95179         1.39654
H         47.93755        50.82889         1.82195
O         32.43934        36.84717         2.63137
H         32.82245        37.53387         3.22904
O         46.65216        21.32662         2.61713
H         46.09867        22.11624         2.80611
O         42.44764        18.41063         1.89992
H         43.21675        18.74525         2.42603
O         30.04521        44.90258         2.78267
H         29.79290        44.02847         3.17994
O         43.93852        25.24054         2.39364
H         43.16136        25.78104         2.65370
O         47.30848        48.99442        -2.09032
H         47.28083        48.11820        -2.52827
O         44.87322        19.60326         2.41386
H         45.51050        20.04132         3.03428
O         40.36031        27.33610        -1.72572
H         41.19245        27.78945        -1.98135
O         28.88814        38.03981         2.32181
H         29.05984        37.12352         2.62573
O         50.21364        27.24630        -1.72434
H         50.18430        26.29424        -1.96176
O         31.89306        35.93366        -1.60062
H         31.51081        35.24129        -2.19401
O         49.22392        35.33554         2.04738
H         48.39657        35.05986         2.49754
O         45.57920        46.00009         2.16809
H         45.70172        46.94678         2.39579
O         42.40101        54.34409        -2.18545
H         42.37925        55.26735        -2.51852
H         22.17071        26.95943        -1.96645
H         22.13287        29.39674        -1.69385
H         22.11739        31.24787        -1.43291
H         22.09214        33.65413        -1.18657
H         22.11903        35.51101        -1.27752
H         22.10047        37.94667        -1.10713
H         22.40740        39.80779        -1.80001
H         22.58732        42.20522        -2.04044
H         22.47846        44.09497        -1.79711
H         22.62360        46.52947        -2.12067
H         25.50622        23.57377        -1.85231
H         23.40466        24.83078        -2.02755
H         25.93788        49.85905        -1.47212
H         23.88821        48.62986        -2.02026
H         27.12563        22.62264        -1.67447
H         27.46174        50.80828        -0.96353
H         29.19954        21.39817        -1.44478
H         29.46778        52.02590        -0.38660
H         32.89189        19.22572        -1.20567
H         30.82405        20.46467        -1.39979
H         32.84034        54.18019         1.28620
H         30.93825        52.98413         0.35412
H         34.49092        18.25955        -0.95218
H         34.57800        55.17971         1.92189
H         36.58715        17.04242        -0.89077
H         36.53650        56.31805         1.08578
H         40.35069        14.86524        -0.67020
H         38.25240        16.08456        -0.85828
H         40.10820        58.39694        -0.25271
H         38.03796        57.21839         0.33988
H         42.88581        14.86510        -0.32417
H         42.55453        58.37277        -0.57710
H         44.98689        16.16745        -0.27436
H         44.70063        57.18475        -0.54803
H         48.57269        18.18018         1.26746
H         46.49210        17.00008         0.75746
H         48.45244        55.02643        -0.54683
H         46.34727        56.22912        -0.50469
H         50.28510        19.11688         0.82222
H         50.04572        54.09717        -1.04215
H         52.33852        20.38283         0.80595
H         52.13873        52.89384        -1.29390
H         56.00192        22.58827         1.24817
H         53.92404        21.35461         1.13397
H         55.88175        50.75511        -1.45985
H         53.78092        51.95748        -1.32940
H         57.63018        23.54330         1.27679
H         57.52064        49.82483        -1.38110
H         59.73365        24.80461         1.28754
H         60.95591        26.93580         1.08544
H         60.96911        29.36714         0.73604
H         60.96628        31.22528         0.37488
H         60.95634        33.61943        -0.00039
H         60.94244        35.48645        -0.32708
H         60.91444        37.87949        -0.69116
H         60.89732        39.73573        -0.78407
H         60.90712        42.14690        -0.98497
H         60.91011        44.01133        -1.28021
H         60.88517        46.46477        -1.37997
H         59.64481        48.59082        -1.41291
