         200
 CSIRO Nanostructure Databank - Neutral Graphene Oxide Data Set
C        -11.11022         0.70818        -0.59693
C         -9.91173         1.49164        -0.38669
C         -8.68871         0.71497        -0.07874
C         -7.39416         1.45297         0.11397
C         -6.14079         0.70488        -0.03610
C         -4.86068         1.45857        -0.22919
C         -3.65385         0.71358         0.29255
C         -2.48832         1.40313         0.60897
C         -1.24623         0.71534         0.83740
C         -0.03334         1.44537         0.97316
C          1.22715         0.71535         1.35706
C          2.48776         1.46117         0.98124
C          3.74333         0.70491         1.00041
C          5.03187         1.44903         0.81611
C          6.24887         0.70562         0.43923
C          7.47153         1.42489         0.45180
C          8.63006         0.63352         0.52945
C         10.33807         1.66509        -0.25695
C         11.24617         0.67733        -0.81516
C         -9.87189         2.86579        -0.35890
C         -8.63651         3.60831        -0.17734
C         -7.40848         2.91616        -0.01269
C         -6.17821         3.61961         0.05634
C         -4.93940         2.91308         0.17035
C         -3.76413         3.61516         0.43862
C         -2.54369         2.86479         0.80017
C         -1.23382         3.62922         0.87848
C          0.03130         2.85703         0.83223
C          1.25842         3.54281         0.74153
C          2.51833         2.83732         0.81445
C          3.77863         3.56175         0.60704
C          5.00706         2.90181         0.59463
C          6.25522         3.58023         0.32700
C          7.49363         2.86890         0.26556
C          8.66640         3.54410        -0.24742
C          9.86046         2.85130        -0.74696
C         -8.61925         5.01930        -0.23386
C         -7.41493         5.75173        -0.10991
C         -6.17977         5.04471         0.06134
C         -4.95187         5.75535         0.19003
C         -3.74246         5.04229         0.43234
C         -2.48989         5.75622         0.46706
C         -1.27652         5.05639         0.55963
C         -0.01987         5.74778         0.29291
C          1.28429         4.96816         0.39074
C          2.55662         5.69725         0.49292
C          3.75957         5.00134         0.44950
C          4.99612         5.71134         0.21890
C          6.21516         4.99192         0.10298
C          7.41812         5.68148        -0.26798
C          8.59191         4.92328        -0.49506
C         -7.38082         7.17574        -0.18052
C         -6.17454         7.88113        -0.11989
C         -4.93814         7.17855         0.06423
C         -3.69937         7.88283         0.07746
C         -2.48238         7.17964         0.23474
C         -1.23446         7.89810         0.20580
C         -0.03084         7.21146         0.33699
C          1.22570         7.94460         0.47793
C          2.55561         7.16276         0.53919
C          3.77624         7.86783         0.14441
C          4.97658         7.12432         0.00157
C          6.19553         7.81025        -0.33499
C          7.38396         7.08496        -0.47300
C         -6.12705         9.31866        -0.25342
C         -4.94276         9.99785        -0.24626
C         -3.67989         9.31706        -0.09744
C         -2.46833        10.00761        -0.13055
C         -1.21867         9.33786         0.00977
C          0.01119        10.01209        -0.11932
C          1.25695         9.35865         0.06436
C          2.50227         9.98148        -0.10767
C          3.73371         9.26763        -0.09018
C          4.97094         9.93044        -0.40893
C          6.14427         9.23522        -0.52445
C        -11.10493        -0.66195        -0.56941
C         -9.89185        -1.44285        -0.46416
C         -8.59854        -0.68547        -0.64002
C         -7.36863        -1.42615        -0.18088
C         -6.13950        -0.68912        -0.04198
C         -4.89278        -1.41629         0.09380
C         -3.67179        -0.71254         0.29669
C         -2.44935        -1.42645         0.53147
C         -1.23974        -0.72029         0.78176
C          0.00679        -1.45050         0.86720
C          1.23466        -0.74565         0.97215
C          2.47987        -1.39430         0.70695
C          3.69630        -0.72882         0.65354
C          4.88366        -1.28013        -0.11396
C          6.21698        -0.67890         0.26104
C          7.41776        -1.41016         0.05106
C          8.66262        -0.73232         0.17648
C          9.89929        -1.40207        -0.18430
C         11.08537        -0.67022        -0.62685
C         -9.86905        -2.81047        -0.36671
C         -8.62622        -3.55253        -0.28498
C         -7.37617        -2.81946        -0.16061
C         -6.14172        -3.54603        -0.02083
C         -4.91079        -2.83566         0.10490
C         -3.67770        -3.55778         0.22580
C         -2.45862        -2.85436         0.42594
C         -1.22591        -3.57896         0.50230
C         -0.02559        -2.87422         0.72588
C          1.22534        -3.64273         0.77642
C          2.50425        -2.87191         0.65266
C          3.66041        -3.57336         0.03926
C          4.90741        -2.79881        -0.25032
C          6.18167        -3.54466        -0.21889
C          7.40444        -2.83347        -0.16542
C          8.64424        -3.53754        -0.27327
C          9.86238        -2.78353        -0.35745
C         -8.60861        -4.93739        -0.28702
C         -7.38347        -5.67900        -0.20336
C         -6.14427        -4.96497        -0.06432
C         -4.91291        -5.68474         0.00077
C         -3.68094        -4.98230         0.14706
C         -2.44544        -5.70471         0.18730
C         -1.22399        -5.01096         0.33973
C          0.01654        -5.74324         0.28384
C          1.23768        -5.06786         0.40137
C          2.48111        -5.75542         0.24591
C          3.70855        -5.04270         0.14721
C          4.92561        -5.70021        -0.09710
C          6.16414        -4.95687        -0.22667
C          7.40619        -5.66654        -0.32890
C          8.61519        -4.94793        -0.38255
C         -7.36696        -7.08224        -0.26454
C         -6.15547        -7.80730        -0.21559
C         -4.91812        -7.10963        -0.08719
C         -3.68543        -7.83265        -0.06419
C         -2.45268        -7.13751         0.05606
C         -1.22875        -7.86460         0.03903
C          0.01473        -7.17046         0.11642
C          1.23730        -7.88573         0.05982
C          2.48654        -7.17255         0.05425
C          3.71413        -7.84051        -0.18382
C          4.92832        -7.12785        -0.20840
C          6.19493        -7.81686        -0.34648
C          7.37802        -7.10507        -0.38025
C         -6.13167        -9.24075        -0.30458
C         -4.95191        -9.93657        -0.28471
C         -3.68824        -9.26164        -0.17232
C         -2.47120        -9.96637        -0.16809
C         -1.23594        -9.29149        -0.07239
C          0.01532        -9.99112        -0.05897
C          1.21828        -9.31841         0.00574
C          2.53554       -10.06654         0.10747
C          3.67689        -9.29956        -0.58423
C          5.01715        -9.97136        -0.41640
C          6.17138        -9.27482        -0.36661
O          2.43730       -11.36587        -0.47058
H          2.46592       -11.23727        -1.44378
O         -8.43957        -0.48879        -2.08729
H         -8.35899        -1.37372        -2.50164
O          3.35639        -9.35210        -2.01299
H          4.06140        -8.86925        -2.49368
O          4.65080        -0.73577        -1.46147
H          4.12934        -1.42026        -1.94707
O         -2.00935         3.29783         2.09640
O          1.23232         0.70074         2.84034
H          1.18000         1.63230         3.14390
O         -4.65968         1.50127        -1.70220
H         -3.79193         1.92753        -1.86938
O          2.10989        -3.41649         1.95214
O          4.60026         1.02596         2.17451
O          3.98806        -3.18133        -1.34931
O          9.80326         1.24159         0.98049
O         -8.20155         0.91516         1.26674
O          1.90513         7.68455         1.76019
O          0.65882         5.22916        -0.95127
H         11.87657        -1.31712        -1.04227
H         12.11272         1.02314        -1.40080
H         10.34678         3.29775        -1.62813
H          9.47979         5.43904        -0.89095
H          8.31150         7.60906        -0.74843
H          7.07612         9.76430        -0.77302
H          4.95672        11.01800        -0.57325
H          2.52850        11.05450        -0.35236
H          0.00671        11.08458        -0.36723
H         -2.47328        11.09849        -0.27666
H         -4.93452        11.09189        -0.36206
H         -7.07488         9.86343        -0.37599
H         -8.32346         7.72650        -0.31891
H         -9.56466         5.56349        -0.37861
H        -10.79415         3.44004        -0.53835
H        -12.06407         1.24328        -0.72022
H        -12.05966        -1.20510        -0.64542
H        -10.81394        -3.37560        -0.33246
H         -9.55534        -5.49255        -0.37123
H         -8.31623        -7.62910        -0.36926
H         -7.08750        -9.77750        -0.39601
H         -4.95694       -11.03398        -0.35974
H         -2.48243       -11.06384        -0.24704
H          0.01658       -11.09041        -0.10454
H          2.78495       -10.19631         1.19549
H          5.03269       -11.07174        -0.43159
H          7.13604        -9.80339        -0.31679
H          8.33409        -7.64591        -0.45090
H          9.56242        -5.49826        -0.48721
H         10.78762        -3.31858        -0.62234
