         261
 CSIRO Nanostructure Databank - Neutral Graphene Oxide Data Set
C        -11.20650         0.54880         0.35792
C        -10.13312         1.43309         0.88557
C         -8.80978         0.74396         1.15563
C         -7.61483         1.42685         0.53509
C         -6.38878         0.66481         0.08159
C         -5.17920         1.36662        -0.50678
C         -3.85578         0.66967        -0.59329
C         -2.60316         1.49502        -0.74876
C         -1.28696         0.78271        -0.70030
C         -0.02703         1.46073        -1.13234
C          1.23158         0.76159        -0.62151
C          2.52078         1.47168        -1.04528
C          3.81663         0.86773        -0.53198
C          5.06299         1.50266        -1.21417
C          6.36019         0.75803        -1.10921
C          7.72380         1.49197        -1.28758
C          8.85662         0.61768        -0.80356
C          9.99469         1.41617         0.87999
C         10.50821         0.43738         1.84121
C        -10.33562         2.91796         0.63512
C         -9.51510         3.91440         0.32830
C         -7.34821         2.87046         0.82220
C         -6.44575         3.61825        -0.14072
C         -5.23463         2.87350        -0.68017
C         -3.98755         3.66137        -0.95388
C         -2.67692         2.93716        -1.19057
C         -1.37931         3.69149        -1.24077
C         -0.05931         2.93785        -1.28913
C          1.22808         3.63298        -0.96496
C          2.51552         2.93638        -1.31601
C          3.79498         3.73241        -1.16744
C          5.11590         3.03067        -1.27230
C          6.39375         3.76464        -0.85685
C          7.68487         2.98538        -0.73079
C          8.82828         3.54354         0.17273
C          9.31815         2.54610         1.21943
C         -9.04182         5.09786        -0.08229
C         -8.04887         5.96499         0.64856
C         -6.41998         5.09975        -0.01023
C         -5.10719         5.80349         0.12284
C         -3.90839         5.08835        -0.44934
C         -2.66102         5.87932        -0.74094
C         -1.38191         5.08097        -0.66555
C         -0.08781         5.77343        -0.37045
C          1.21956         5.06526        -0.56657
C          2.48163         5.85373        -0.66539
C          3.69449         5.01205        -0.38621
C          4.90774         5.65275         0.16403
C          6.26177         5.20245        -0.31985
C          7.35636         5.62173         0.63293
C          8.45640         4.85425         0.85426
C         -7.58139         7.20567         0.03575
C         -6.45533         8.00537         0.64835
C         -5.09031         7.29018         0.41913
C         -3.82732         8.05133         0.17493
C         -2.61003         7.30613        -0.28358
C         -1.34323         7.66903         0.46868
C         -0.08246         7.26807        -0.26132
C          1.17120         8.06559        -0.30220
C          2.48371         7.32917        -0.45320
C          3.63458         7.87094         0.39031
C          4.98368         7.16536         0.09650
C          6.12254         7.75772         0.88419
C          7.22349         6.98098         1.15116
C         -6.32818         9.46778         0.23086
C         -5.18009        10.14286         0.03567
C         -3.80688         9.53086        -0.21276
C         -2.62250        10.28680         0.43170
C         -1.32584        10.13340         0.15219
C         -0.02386        10.27434        -0.09002
C          1.16808         9.43077         0.41647
C          2.53459        10.10630         0.26843
C          3.69824         9.39081         0.35601
C          4.98104         9.95600         0.73824
C          6.05875         9.19022         1.09251
C        -11.04498        -0.76304         0.07133
C         -9.88107        -1.56666         0.53399
C         -8.75593        -0.77183         1.15764
C         -7.37581        -1.35326         1.35605
C         -6.18667        -0.65643         0.77917
C         -4.82935        -1.32331         0.76796
C         -3.65847        -0.62979         0.15573
C         -2.40908        -1.43917        -0.10510
C         -1.20373        -0.72042        -0.58801
C         -0.06515        -1.42424        -1.27857
C          1.23269        -0.67277        -1.19710
C          2.50470        -1.43283        -0.97390
C          3.75091        -0.66894        -0.62973
C          5.05670        -1.38110        -0.48613
C          6.34242        -0.61968        -0.50260
C          7.56983        -1.43233        -0.41018
C          8.78728        -0.76651        -0.57879
C         10.31556        -1.90475         0.79063
C         10.66869        -0.92273         1.80475
C         -9.56684        -2.87418        -0.13131
C         -9.00498        -3.94594         0.42218
C         -7.16796        -2.78139         1.84740
C         -6.05919        -3.54138         1.11791
C         -4.73233        -2.81055         1.07797
C         -3.48781        -3.57976         0.73001
C         -2.49003        -2.93189        -0.20364
C         -1.31397        -3.67004        -0.78183
C         -0.17094        -2.94879        -1.55683
C          1.23352        -3.63786        -1.51998
C          2.54749        -2.87878        -1.39117
C          3.86267        -3.61886        -1.17363
C          5.11402        -2.86056        -0.75996
C          6.32211        -3.59895        -0.24310
C          7.29369        -2.66128         0.44821
C          9.48849        -4.16131         0.12318
C         10.21774        -3.25292         1.02101
C         -8.73443        -5.17864         0.81774
C         -7.38565        -5.78512         1.21146
C         -6.16614        -4.98460         0.71662
C         -4.87667        -5.78052         0.56451
C         -3.55157        -5.08213         0.63965
C         -2.26438        -5.79491         0.25150
C         -1.00572        -5.04028        -0.18176
C         -0.04533        -5.86426        -1.06128
C          1.26349        -5.14736        -1.35714
C          2.54898        -5.86436        -1.07295
C          3.85666        -5.11355        -1.00838
C          5.01612        -5.83573        -0.37540
C          6.26560        -5.09345        -0.02377
C          7.61191        -5.88449        -0.11522
C          8.72889        -5.19019         0.63664
C         -7.29756        -7.25889         0.87640
C         -6.17330        -7.90556         0.46125
C         -5.01918        -7.13202        -0.18707
C         -3.67093        -7.97470        -0.25654
C         -2.36677        -7.25158         0.01866
C         -1.33243        -8.10327        -0.67753
C         -0.04097        -7.37456        -1.08136
C          1.32650        -8.09926        -0.93580
C          2.49032        -7.20960        -0.36839
C          3.71530        -8.08069        -0.74550
C          5.14878        -7.33377        -0.79195
C          6.21103        -7.97202         0.12486
C          7.34924        -7.27675         0.40958
C         -6.09233        -9.34087         0.59862
C         -4.89446       -10.00297         0.65358
C         -3.65622        -9.33831         0.39163
C         -2.42722        -9.98216         0.52956
C         -1.21235        -9.38504         0.10106
C          0.03536        -9.98053         0.28267
C          1.23804        -9.36904        -0.10859
C          2.45858        -9.98279         0.25233
C          3.69192        -9.36738         0.05053
C          4.87989        -9.99537         0.52333
C          6.08065        -9.33669         0.55379
O          5.32355        -5.51437         1.01485
O         -6.44060        -3.93973        -0.25120
O          1.97904        -3.16445        -2.68489
O          1.98388        -5.84921        -2.39921
O         -4.13986        -5.74407         1.80557
O          7.66456        -2.74056         1.60016
O         -6.89654         4.53713        -1.20899
O         -6.57148        -0.47978         2.20044
O          6.38708         6.12083        -1.50088
O         -4.20184         7.67060         1.52007
O         -4.75052         0.65289        -1.72357
O         -2.56856        -3.56335        -1.50931
O          0.50919        -0.75563        -2.44254
O          5.56784         0.77894        -2.34830
O         10.10208         1.16702        -0.53202
O          4.17774        -4.50343        -2.27935
O         -7.50985         0.88718        -0.82539
O         -0.41689        -6.59116        -2.25380
O          1.34263         4.00938         0.44380
O          5.69644        -7.36747        -2.05738
O          0.01217         2.04908        -2.44251
O         -9.58043         1.27244         2.24509
O          2.54190         1.97668        -2.39867
O         -3.47107        -8.31392        -1.68825
O          4.08490         4.88178         1.03651
O         -7.48880         3.29808         1.95564
O         -4.92541         3.35649        -2.01661
O         -3.92197        -0.51253         1.57676
O         -1.95112        -6.78515         1.31477
O         -0.86008         5.13022         0.69268
O         10.01469        -1.40922        -0.48800
O          6.23346        -3.18790        -1.63894
O          2.88845        -1.24536         0.42548
O         -2.61707         6.96072        -1.70079
O         -1.38319         7.91750         1.65416
O          1.87982        -8.51938        -2.22351
O          7.43459         3.82459        -1.88939
O          3.35383        -8.49852        -2.10932
O         -2.12935         3.41359        -2.45371
O         -3.70775        -3.08155         2.07095
O          0.29190         7.98430        -1.46891
O          3.26686         7.61088         1.72983
O         -1.83741         1.40513         0.49622
O          5.61489        -0.86057         0.78690
O         -4.20028         5.07763         0.99511
O         -7.71014        -3.17581         2.85895
O          5.40807         7.25471        -1.31820
O         -1.31300        -1.11637         0.81285
O          4.53351         3.71435        -2.42091
O         -5.44073        -6.81263        -1.46457
O         -9.72697        -1.46078         1.97903
O         -2.03890        -8.51566        -1.91019
O          2.68725         6.77347        -1.78178
O         -0.23108        -4.75016         1.00736
H         -0.46742        -5.41118         1.69806
O          9.93286         3.83256        -0.70234
H          9.57477         4.32481        -1.47269
O          1.03111         9.17822         1.81974
H          1.80663         8.59778         2.07957
O          1.12160         0.74735         0.79771
H          2.01737         0.66973         1.20195
O          9.48068        -3.85497        -1.18715
H          8.93065        -4.53079        -1.66496
O         -3.63364         9.53172        -1.64446
H         -3.38182        10.43264        -1.93306
O         -8.09192         5.85209         1.98618
H         -7.55469         6.57861         2.39772
O          7.97999         1.56164        -2.69563
H          7.58152         2.40225        -3.03118
O          7.92103        -5.97327        -1.52035
H          7.16613        -6.48954        -1.95643
O         -6.65931         8.04038         2.08369
H         -5.77474         8.20544         2.49118
O         -7.34398        -5.81765         2.65823
H         -7.57082        -4.91887         3.01164
O         -0.59225        -3.06659        -2.91841
H          0.13303        -2.72405        -3.48833
O          3.89036         1.20718         0.86930
H          4.44227         0.51860         1.31843
O          2.36825        -6.97145         1.02776
H          2.52454        -7.80683         1.51735
H         11.02802        -1.37189         2.74544
H         10.74385         0.90130         2.81399
H          9.19394         2.80337         2.28145
H          9.24987         5.26325         1.50000
H          8.07896         7.40644         1.69817
H          6.95613         9.68674         1.49285
H          5.03923        11.04899         0.86015
H          2.57583        11.20492         0.35453
H          0.24783        11.03772        -0.84595
H         -2.88308        10.95747         1.27219
H         -5.25337        11.22895        -0.14227
H         -7.26422        10.04616         0.28772
H         -7.68534         7.27366        -1.05982
H         -9.20171         5.36600        -1.14428
H        -11.34290         3.23850         0.97652
H        -12.12457         1.04976         0.01214
H        -11.85460        -1.29870        -0.44702
H         -9.70585        -2.87786        -1.22930
H         -9.59849        -5.82264         1.07221
H         -8.12273        -7.86627         1.28618
H         -7.02560        -9.89259         0.79169
H         -4.87071       -11.07555         0.89618
H         -2.39139       -10.98484         0.98188
H          0.09264       -10.94527         0.80969
H          2.42211       -10.93928         0.79633
H          4.80543       -11.02420         0.90506
H          6.98104        -9.85706         0.91440
H          8.10512        -7.74033         1.06474
H          8.74027        -5.33839         1.72545
H         10.43948        -3.62121         2.03303
