         314
 CSIRO Nanostructure Databank - Neutral Graphene Oxide Data Set
C         30.39076        57.17107         0.21214
C         30.36930        58.60012         0.21880
C         29.16085        59.31559         0.09087
C         30.33541        61.44302         0.17194
C         29.15457        60.71809         0.07675
C         32.78905        52.81896         0.24506
C         32.84811        54.32899         0.31945
C         31.64274        55.03239         0.37356
C         32.81079        57.20514         0.65463
C         31.57185        56.45395         0.40213
C         32.82934        58.66002         0.44497
C         31.59966        59.33939         0.31439
C         32.80786        61.47849         0.37250
C         31.58833        60.77452         0.28078
C         35.22722        48.55012         0.01344
C         35.36344        50.01098        -0.01884
C         34.16065        50.74784         0.04489
C         35.32759        52.86860        -0.15527
C         34.12590        52.14074         0.04785
C         35.30776        54.32921        -0.07439
C         34.09743        55.00068         0.25447
C         35.33732        57.22068         0.20172
C         34.14141        56.44180         0.54234
C         35.30470        58.66241         0.27183
C         34.05650        59.36124         0.41895
C         35.28064        61.50934         0.42652
C         34.04787        60.80134         0.40830
C         37.78815        44.31059         0.94504
C         37.66203        45.64819         0.64529
C         36.24146        46.23961         0.73272
C         37.94717        48.72859         0.05522
C         36.14434        47.74130         0.61352
C         37.84457        50.03350        -0.44752
C         36.59629        50.73620        -0.19004
C         37.75141        52.90092        -0.73323
C         36.53332        52.15298        -0.34365
C         37.73591        54.41966        -0.66356
C         36.49127        55.08765        -0.22975
C         37.73718        57.24490        -0.44207
C         36.49057        56.50887        -0.14191
C         37.73709        58.75243        -0.26692
C         36.48890        59.41397         0.13078
C         37.76674        61.53198         0.28788
C         36.50839        60.83534         0.30215
C         40.29526        40.04768         1.13345
C         40.24521        41.44103         0.86698
C         39.06299        42.20373         1.06319
C         40.18171        44.23090         0.25700
C         39.02182        43.57312         0.75931
C         40.08394        45.62648        -0.33853
C         38.77071        46.33029         0.02558
C         40.56007        48.61981        -0.94586
C         38.67298        47.62234        -0.47157
C         40.43481        50.07834        -1.06798
C         39.04236        50.76601        -0.97206
C         40.24936        52.95279        -0.68203
C         39.05985        52.22338        -0.72245
C         40.23220        54.40157        -0.52836
C         39.02512        55.11916        -0.48559
C         40.20274        57.26589        -0.11066
C         39.02085        56.53445        -0.31390
C         40.18870        58.70089         0.05508
C         39.01247        59.43282         0.00677
C         40.25025        61.57065         0.24548
C         38.99764        60.87011         0.20753
C         42.94380        35.81199         1.23321
C         42.80415        37.16710         0.77470
C         41.60691        37.83425         1.02810
C         42.74282        39.98974         0.32198
C         41.39271        39.22071         0.66335
C         42.72083        41.44140         0.61193
C         41.43285        42.15251         0.49042
C         42.68066        44.24008        -0.12499
C         41.40690        43.52895         0.20848
C         42.67060        45.76306        -0.16676
C         41.34639        46.46291         0.18403
C         42.64974        48.69647         0.30964
C         41.47156        47.94535        -0.19855
C         42.63305        50.16974         0.09218
C         41.57889        50.84405        -0.57849
C         42.70203        52.98691        -0.25431
C         41.51587        52.25786        -0.54276
C         42.66393        54.40198        -0.26515
C         41.46652        55.11850        -0.36360
C         42.66083        57.25799        -0.04794
C         41.46283        56.56146        -0.13925
C         42.74935        58.67761         0.32376
C         41.43628        59.41844         0.40270
C         42.73581        61.53492         0.28695
C         41.47081        60.89282         0.29194
C         45.52818        33.25679         1.96929
C         44.27632        33.85667         1.83267
C         45.28115        35.58519         0.31635
C         44.13296        35.10973         1.18107
C         45.23185        37.08081        -0.02368
C         43.99611        37.86009         0.30196
C         45.23916        40.02024         0.18841
C         44.00976        39.24827         0.30795
C         45.24547        41.41206         0.24779
C         44.02029        42.18686         0.52134
C         45.15353        44.31518        -0.08468
C         43.98785        43.61003         0.12046
C         45.15306        45.76508        -0.19249
C         43.96271        46.46318         0.00061
C         45.30422        48.57718         0.22019
C         43.99852        47.89562         0.37891
C         45.48982        49.90826         0.59844
C         43.68100        50.97680         0.57241
C         45.21965        52.90362         0.13204
C         43.89426        52.30602         0.15199
C         45.24164        54.39565         0.08816
C         43.92827        55.10977        -0.04305
C         45.17807        57.27860        -0.43321
C         43.89615        56.54658        -0.40287
C         45.19816        58.66546         0.06107
C         44.04601        59.42003         0.25694
C         45.15081        61.73266         0.15456
C         43.99884        60.88809         0.32346
C         46.69126        33.91275         1.54847
C         47.78941        35.87322         0.60838
C         46.62901        35.15094         0.86744
C         47.84296        37.17600         0.02412
C         46.51645        37.83095        -0.30371
C         47.48724        40.06985        -0.67350
C         46.43879        39.31805        -0.21200
C         47.73951        41.42718        -0.22587
C         46.50820        42.16837         0.27960
C         47.60667        44.29450        -0.60293
C         46.50024        43.70105         0.28854
C         47.63745        45.77615        -0.58045
C         46.43259        46.46594        -0.34299
C         47.67794        48.61489        -0.45346
C         46.44974        47.89094        -0.27926
C         47.70720        50.05227        -0.32911
C         46.54507        50.73547         0.11716
C         47.63779        52.90253        -0.42468
C         46.41918        52.18388         0.05947
C         47.67949        54.38881        -0.61656
C         46.46459        55.16557        -0.28831
C         47.63938        57.30535        -0.97115
C         46.45173        56.50945        -0.46355
C         47.66982        58.64568        -0.25331
C         46.53039        59.13528         0.32518
C         47.73338        61.80921        -0.02398
C         46.48231        61.33977         0.39486
C         49.10420        37.78549         0.00906
C         50.34797        40.01688        -0.18325
C         49.40252        39.08347        -0.53645
C         50.23545        41.44048        -0.55110
C         49.00328        42.11111        -0.57692
C         50.14973        44.34313        -0.94484
C         48.90789        43.55114        -0.84932
C         50.11567        45.72224        -0.92568
C         48.86832        46.46979        -0.77684
C         50.14939        48.60993        -0.50983
C         48.86967        47.88289        -0.70747
C         50.19616        50.07487        -0.88069
C         48.93519        50.80842        -0.49022
C         50.17949        52.97095        -0.38435
C         48.92594        52.17607        -0.42164
C         50.15276        54.41968        -0.71743
C         48.97936        55.11848        -0.72923
C         50.14470        57.29309        -0.87997
C         48.97278        56.57942        -0.83908
C         50.14431        58.79444        -0.80712
C         48.86680        59.50462        -0.41778
C         50.14168        61.49718         0.31760
C         48.90477        60.95206         0.02930
C         51.41870        42.20999        -0.74058
C         52.63700        44.30857        -0.99338
C         51.41390        43.60864        -0.92001
C         52.69219        45.72408        -1.02326
C         51.39306        46.49369        -1.18420
C         52.71713        48.59551        -0.46222
C         51.41680        47.84443        -0.49799
C         52.67750        50.07948        -0.50468
C         51.50167        50.76641        -0.52564
C         52.73090        53.00763        -0.69383
C         51.48933        52.24938        -0.38742
C         52.71183        54.36399        -0.90962
C         51.40612        55.05431        -1.28379
C         52.75236        57.31179        -0.95121
C         51.43856        56.58776        -1.13474
C         52.76324        58.78529        -0.58636
C         51.44543        59.51623        -0.54631
C         52.50798        61.21961         0.88991
C         51.37397        60.76179         0.25787
C         53.89681        46.40888        -1.04517
C         55.18277        48.66346        -1.10093
C         53.99328        47.85809        -0.77739
C         55.22216        50.02062        -0.85704
C         53.99393        50.76700        -0.43329
C         55.20899        52.88129        -1.23961
C         54.00638        52.26401        -0.56102
C         55.23396        54.39047        -1.06313
C         53.95619        55.11968        -0.92345
C         55.18354        57.16971        -0.29487
C         53.98529        56.50128        -0.73327
C         55.14811        58.56822         0.07602
C         53.94991        59.35200         0.10896
C         54.76900        61.12118         1.74136
C         53.79672        60.56963         0.85143
C         56.45049        50.75954        -0.89420
C         57.65449        52.85880        -0.49715
C         56.48655        52.15929        -0.84740
C         57.68472        54.25812        -0.26777
C         56.51030        55.08367        -0.64137
C         57.52964        57.02577         0.51559
C         56.39651        56.45593        -0.12219
C         57.51086        58.40439         0.87701
C         56.38915        59.14080         0.43803
C         57.19199        60.95180         2.54295
C         56.15157        60.89620         1.61096
C         58.76877        54.87801         0.34885
C         59.83034        56.89061         1.31661
C         58.73226        56.25860         0.72345
C         59.76069        58.22139         1.81937
C         58.57502        59.00609         1.63774
C         59.52493        60.66375         3.17666
C         58.43163        60.23528         2.38219
C         60.85004        58.74100         2.56576
C         60.72939        59.96030         3.22287
O         43.43305        41.85127         1.83605
O         39.51681        47.92263        -1.55452
O         44.58132        50.46227         1.50729
O         52.17236        57.13636        -2.28805
O         48.44758        39.49504        -1.50171
O         45.71884        37.28742        -1.40592
O         37.21087        48.43163         1.22528
O         37.65651        58.12826        -1.60897
O         47.85792        43.75510        -1.92350
O         42.07196        58.92047         1.62793
O         44.42329        57.01610        -1.69029
O         53.55593        48.13120         0.63719
O         47.45694        41.58045         1.21928
O         56.54329        60.51621         0.30373
O         47.42227        53.50851        -1.77941
O         46.62487        60.19869         1.21609
O         39.69388        50.47830        -2.25380
O         46.70313        44.18384         1.58854
O         50.71646        48.10511         0.75173
O         37.57577        53.72448        -1.94855
O         52.32162        59.63164        -1.70786
O         49.32278        59.42873        -1.84599
O         42.64383        44.97482        -1.40823
O         44.55109        54.93169         1.28388
O         54.22508        51.64008         0.73375
O         50.90527        52.71753         0.89829
O         33.54718        56.78661         1.84504
O         56.12691        54.98900        -2.06511
O         43.20320        48.22907         1.57410
O         41.83123        39.59184        -0.69901
O         50.16741        50.04388        -2.34736
H         50.00001        50.95191        -2.67874
O         45.12233        34.84761        -0.92844
H         45.49041        35.42401        -1.64005
O         40.09773        45.46785        -1.76325
H         40.99478        45.14362        -2.02721
O         55.00780        52.64002        -2.65861
H         55.57050        53.29115        -3.13605
O         31.88086        52.41047        -0.79493
H         32.28097        52.64325        -1.65786
O         51.35011        46.85258        -2.60796
H         51.23328        46.02777        -3.12538
O         47.42719        57.51644        -2.38634
H         48.09969        58.18070        -2.67455
O         51.27710        54.78177        -2.71259
H         51.73821        55.51847        -3.18086
O         41.20650        46.41779         1.61831
H         41.93008        46.97022         2.00876
O         35.42129        45.61462        -0.26253
H         35.88759        45.65029        -1.12294
H         29.44573        56.62801         0.06004
H         28.21367        58.76367         0.00754
H         30.31267        62.54211         0.15788
H         28.19703        61.24990        -0.01423
H         32.34150        52.44190         1.20542
H         30.70470        54.46099         0.30777
H         32.79588        62.57868         0.37283
H         34.29818        48.11677        -0.38486
H         33.21319        50.19945         0.15194
H         35.26704        62.60755         0.48841
H         36.91197        43.75583         1.31226
H         35.81253        45.94591         1.72947
H         37.75469        62.62660         0.39790
H         39.46612        39.57217         1.67789
H         38.15145        41.70128         1.41868
H         40.23926        62.67105         0.24637
H         42.08427        35.36132         1.75446
H         40.82426        37.31954         1.60487
H         42.73810        62.63527         0.23699
H         45.61324        32.29947         2.50240
H         43.39567        33.39926         2.30774
H         44.96694        62.75046        -0.22400
H         47.67567        33.49594         1.80934
H         48.74697        35.43015         0.92832
H         47.86737        62.84740        -0.36522
H         49.92487        37.23673         0.49947
H         51.18473        39.72897         0.47048
H         50.19239        62.53657         0.67598
H         52.39052        41.69600        -0.70109
H         53.57725        43.74167        -0.91526
H         52.43768        62.15071         1.47251
H         54.83662        45.83698        -1.10590
H         56.08870        48.14708        -1.45289
H         54.40188        61.74301         2.57171
H         57.39655        50.19740        -0.85200
H         58.55037        52.27503        -0.23336
H         57.04987        61.51676         3.47662
H         59.66305        54.28590         0.59413
H         60.76013        56.32128         1.46747
H         59.41982        61.59140         3.75767
H         61.77050        58.14706         2.65769
H         61.56626        60.34993         3.81876
