         324
 CSIRO Nanostructure Databank - Neutral Graphene Oxide Data Set
C          1.12307         2.17157         0.33059
C          1.06613         3.47714        -0.10107
C          2.33694         1.44710         0.40654
C          2.24920         4.12920        -0.67265
C          1.14838         6.31579        -1.11049
C          1.16789         7.71127        -1.23231
C          2.30997         5.60958        -0.81712
C          2.32779         8.43834        -0.95689
C          1.15007        10.68239        -1.23651
C          1.10693        12.06589        -1.02253
C          2.25971         9.89728        -0.84362
C          2.05246        12.68267        -0.17990
C          1.01217        15.03382        -0.00161
C          1.07864        16.39188         0.03128
C          2.21999        14.19225        -0.09216
C          2.33053        17.11182         0.15696
C          2.36512        18.56449         0.13014
C          3.56792         2.05374         0.10063
C          3.56279         3.39217        -0.52186
C          4.80709         1.44224         0.33559
C          4.82186         4.16550        -0.51577
C          3.55306         6.30736        -0.67322
C          3.54158         7.74050        -0.63344
C          4.79731         5.60747        -0.56818
C          4.75049         8.44269        -0.30770
C          3.31142        10.52993        -0.14590
C          3.03629        11.81973         0.32716
C          4.68731         9.92127        -0.17034
C          4.91802        12.88857         0.80101
C          3.54000        14.94055         0.24915
C          3.49641        16.41233         0.40219
C          4.83459        14.26878         0.58251
C          4.74053        17.15836         0.72299
C          3.52595        19.27113         0.23548
C          4.80373        18.62232         0.46696
C          6.03814         2.07866        -0.01444
C          6.01643         3.47083        -0.42941
C          7.24004         1.39949         0.19510
C          7.25303         4.21195        -0.88949
C          6.02246         6.33460        -0.39777
C          5.98306         7.76386        -0.21550
C          7.26840         5.64739        -0.41500
C          7.23505         8.47048         0.03674
C          5.98855        10.65337         0.17339
C          6.05107        12.11004         0.54714
C          7.23075         9.85134         0.29292
C          7.24396        12.83086         0.34437
C          6.04941        14.96203         0.43159
C          6.05483        16.41274         0.71512
C          7.25427        14.23957         0.32373
C          7.34315        17.16746         0.64391
C          5.99356        19.30912         0.39539
C          7.32547        18.68285         0.52865
C          8.53441         1.94936        -0.18519
C          8.54728         3.43655        -0.68539
C          9.79097         1.40568         0.29157
C          9.80140         4.17167        -0.51531
C          8.49567         6.33617        -0.23302
C          8.47317         7.72541         0.04916
C          9.77280         5.61764        -0.39930
C          9.74985         8.44106         0.25663
C          8.49340        10.58515         0.57455
C          8.50206        12.09616         0.54301
C          9.78591         9.92517         0.27401
C          9.78034        12.86194         0.41470
C          8.47870        14.97795        -0.07783
C          8.51982        16.46402         0.05778
C          9.76948        14.20606        -0.29592
C          9.80900        17.17518         0.06987
C          8.57209        19.31941         0.07199
C          9.79734        18.60689         0.03995
C         11.00420         2.05111         0.00105
C         10.98937         3.44923        -0.39507
C         12.25142         1.39872         0.19215
C         12.27340         4.12457        -0.59174
C         10.97409         6.30518        -0.40608
C         11.03646         7.72238        -0.01795
C         12.26299         5.66261        -0.69128
C         12.20328         8.46445        -0.64401
C         10.95899        10.61741         0.11804
C         11.04902        12.08532         0.28276
C         12.20123         9.96454        -0.38286
C         12.28821        12.84306        -0.00090
C         11.02470        15.00055         0.00366
C         11.01817        16.42812         0.03189
C         12.24444        14.28370         0.06054
C         12.26312        17.13748         0.06557
C         11.05891        19.27879        -0.07315
C         12.27714        18.58316        -0.02743
C         13.50542         2.05885         0.06374
C         13.52529         3.46206        -0.21577
C         14.73382         1.36118         0.19836
C         14.73631         4.18870        -0.17426
C         13.53070         6.38719        -0.40151
C         13.52255         7.78305        -0.33386
C         14.74386         5.65220        -0.24435
C         14.73954         8.52954        -0.16667
C         13.50757        10.69125        -0.25003
C         13.51383        12.13820         0.09326
C         14.76605         9.93724        -0.15809
C         14.72411        12.79843         0.27113
C         13.47192        15.00873         0.13289
C         13.47394        16.41133         0.14334
C         14.73945        14.24981         0.08165
C         14.73448        17.16675         0.34757
C         13.53450        19.26710        -0.13567
C         14.76632        18.60555        -0.00902
C         15.96679         2.03738         0.08090
C         15.94197         3.45580        -0.04760
C         17.23091         1.34170         0.14430
C         17.21140         4.19101        -0.12066
C         15.94210         6.38304        -0.03915
C         15.96676         7.79081        -0.02291
C         17.16798         5.61815         0.29396
C         17.19196         8.52525         0.24624
C         16.05785        10.71744        -0.12239
C         15.93748        12.02363         0.71500
C         17.23097         9.89170         0.33260
C         17.25505        12.79355         0.70061
C         16.04334        14.96029         0.18552
C         16.02963        16.42935         0.44420
C         17.28384        14.23095         0.54191
C         17.29317        17.11836         0.13742
C         16.01806        19.22628        -0.20148
C         17.26427        18.52310        -0.16729
C         18.46744         1.98622         0.10243
C         18.51198         3.45783        -0.05299
C         19.72064         1.32143         0.15389
C         19.75472         4.18417         0.30612
C         18.45664         6.30878         0.56714
C         18.47196         7.77540         0.31417
C         19.75086         5.57585         0.48033
C         19.75747         8.49738         0.51476
C         18.41928        10.58811         0.98394
C         18.43114        12.08811         0.82467
C         19.76074         9.95237         0.70988
C         19.71904        12.78142         1.01747
C         18.46052        14.96310         0.51731
C         18.47339        16.37342         0.15078
C         19.73517        14.31568         0.86029
C         19.72498        17.00396        -0.16293
C         18.48819        19.14232        -0.47933
C         19.71470        18.41649        -0.51670
C         20.94339         2.02741         0.17517
C         20.97167         3.46581         0.33890
C         22.18832         1.35332         0.04639
C         22.20669         4.16263         0.49764
C         20.96500         6.26359         0.71352
C         20.93006         7.71414         0.99309
C         22.20181         5.58349         0.70746
C         22.22230         8.47157         1.13863
C         20.98305        10.63264         0.83595
C         20.99860        12.07255         0.85134
C         22.23490         9.92926         0.90308
C         22.20808        12.78122         0.73541
C         20.99949        14.95414         0.47296
C         20.93161        16.28737        -0.04327
C         22.21013        14.21754         0.52835
C         22.18117        16.87895        -0.53195
C         20.91198        19.08253        -0.80627
C         22.17151        18.38244        -0.94349
C         23.39241         2.04491         0.06581
C         23.43413         3.44247         0.33799
C         24.68516         1.28710        -0.11384
C         24.67774         4.16104         0.28051
C         23.44105         6.32129         0.88027
C         23.47072         7.69514         1.04782
C         24.74302         5.53461         0.92146
C         24.70967         8.48199         1.24994
C         23.46161        10.63164         0.89494
C         23.45959        12.06153         0.75077
C         24.71118         9.94211         1.06789
C         24.69541        12.75533         0.68114
C         23.47030        14.85630         0.25357
C         23.47012        16.36062         0.06784
C         24.66683        14.16453         0.36174
C         24.67247        16.94017        -0.62569
C         23.45621        19.06002        -0.95011
C         24.66292        18.32351        -0.94594
C         25.82150         2.15915        -0.59794
C         25.80269         3.56433        -0.27824
C         26.92619         1.57294        -1.18131
C         26.93221         4.38093        -0.88932
C         25.86657         6.40437         0.37293
C         26.05121         7.74271         0.99385
C         27.02561         5.82579        -0.39381
C         27.22822         8.52615         0.66846
C         25.93481        10.66072         1.05879
C         25.93484        12.05815         0.86588
C         27.23527         9.91924         1.19337
C         27.18614        12.85001         1.06926
C         25.94951        14.81036        -0.03812
C         25.93873        16.21055        -0.58399
C         27.19448        14.31399         0.63139
C         27.19687        16.98053        -0.57947
C         25.90068        18.98697        -1.22309
C         27.13828        18.36400        -1.02027
C         28.17785         2.28377        -1.30464
C         28.22307         3.61663        -0.93242
C         29.40116         1.61196        -1.68606
C         29.50883         4.27330        -0.72715
C         28.31080         6.53810        -0.28470
C         28.37170         7.88969         0.13154
C         29.55505         5.76469        -0.38317
C         29.67186         8.55947         0.24016
C         28.55550        10.63040         1.31395
C         28.51675        12.17551         1.36758
C         29.77132         9.83178         0.87896
C         29.76476        13.08671         1.25994
C         28.46563        15.04643         0.36495
C         28.38729        16.39245        -0.17913
C         29.69144        14.44737         0.64910
C         29.60951        17.22280        -0.22512
C         28.34021        19.07587        -1.25855
C         29.58500        18.51039        -0.94854
C         30.58921         2.28824        -1.76069
C         30.70355         3.65191        -1.31836
C         31.86726         4.39849        -1.41571
C         30.81343         6.48269        -0.61297
C         30.85793         7.87038        -0.16506
C         31.91760         5.77291        -1.06135
C         32.12418         8.44972         0.06727
C         31.06162        10.24222         1.24997
C         31.11217        12.49855         1.33324
C         32.23226         9.60613         0.81852
C         32.23314        13.06834         0.81118
C         30.94655        15.07154         0.24928
C         30.96389        16.52242        -0.07114
C         32.13867        14.38158         0.26538
C         32.10673        17.16388        -0.71951
C         30.79557        19.14588        -1.27128
C         32.02450        18.45552        -1.18849
O         10.64337         7.94652         1.36146
O          3.14410        14.61160        -1.15162
O         19.33160         8.08126        -0.85095
O          2.85689         3.42243        -1.81378
O         17.97317         3.93733        -1.35399
O          8.44900        11.36116         1.81968
O         25.93314         6.59335        -1.07216
O         15.35236        16.86154         1.66860
O         21.38666         8.09817         2.31800
O         30.35991        17.29755         1.02287
O          8.63230         2.34972        -1.61776
O         29.08124        12.80384         2.53701
O         22.17745        17.22674        -1.90820
O          7.59638        17.95315         1.81942
O          5.35173        16.69479         1.97416
O         25.54484         7.94919         2.34252
O         12.76807        10.62676        -1.57125
O         15.54556        14.63070        -1.15200
O          5.48296        10.58132        -1.23587
O         27.91335        10.06064         2.50033
O         29.66993         4.72985         0.67476
O         17.61658         5.86446         1.68395
O         10.58586        12.68051         1.59424
O         26.04232        14.98452        -1.48638
O         19.73331        13.68569         2.17972
O          3.81395        12.28265         1.38494
O         12.33458         4.83923        -1.87945
O          8.18893        15.84256        -1.25283
O         31.22278        11.34096         2.10290
O         26.93892        13.95586         2.01437
O         11.96449         8.27660        -2.06569
H         12.44012         9.00556        -2.53001
O         15.68414        11.58099         2.07199
H         15.81360        12.33432         2.68448
O         16.35496        11.18726        -1.47352
H         16.35585        10.41354        -2.07544
O         23.47496        16.91292         1.43520
H         24.21568        16.50346         1.93144
O         26.55601         4.46436        -2.30831
H         25.89864         5.19637        -2.37648
O          9.81332        13.85000        -1.70660
H          9.43658        14.61512        -2.20118
O         24.50514         0.15026        -0.96132
H         24.26246         0.46913        -1.85456
O         18.22426        10.34120         2.42645
H         18.92085        10.83337         2.91241
O          7.11913         4.32537        -2.34532
H          7.36039         3.44765        -2.72068
O         25.05202         5.26997         2.31531
H         25.11474         6.14296         2.77581
H          0.20586         1.69124         0.70126
H          0.13550         4.05129         0.01333
H          2.32747         0.42297         0.80612
H          0.20359         5.77687        -1.26510
H          0.23713         8.23462        -1.48806
H          0.33787        10.21944        -1.81361
H          0.30227        12.65912        -1.47955
H          0.03266        14.53393         0.03005
H          0.14870        16.98005         0.04104
H          1.41709        19.09730        -0.03459
H          4.83972         0.42622         0.75653
H          3.51052        20.36774         0.14962
H          7.21989         0.42225         0.69993
H          5.96422        20.38116         0.14309
H          9.79036         0.45562         0.84497
H          8.57932        20.40606        -0.10254
H         12.24671         0.32927         0.45022
H         11.07027        20.37669        -0.14512
H         14.71946         0.27473         0.36735
H         13.52442        20.34949        -0.33577
H         17.20768         0.24603         0.24707
H         16.03863        20.29880        -0.44901
H         19.74457         0.22121         0.14161
H         18.50337        20.21167        -0.73693
H         22.20036         0.26632        -0.12182
H         20.92005        20.18203        -0.84343
H         24.98287         0.88233         0.89635
H         23.48586        20.15742        -1.01024
H         26.90417         0.49495        -1.40067
H         25.87862        20.03865        -1.54362
H         29.34763         0.55535        -1.98531
H         28.29149        20.08372        -1.69628
H         31.49233         1.78193        -2.13207
H         32.77772         3.92726        -1.81339
H         32.87839         6.28653        -1.20383
H         33.03759         7.93267        -0.25138
H         33.21036        10.00734         1.11178
H         33.21190        12.58807         0.93147
H         33.06751        14.87125        -0.05250
H         33.04336        16.60658        -0.85608
H         30.76824        20.14584        -1.72688
H         32.92499        18.93438        -1.59894
