         276
 CSIRO Nanostructure Databank - Neutral Graphene Oxide Data Set
C        -10.52945         0.83284         1.78538
C         -9.29524         1.59268         1.33948
C         -8.58380         0.83263         0.23588
C         -7.71316         1.53736        -0.74494
C         -6.51555         0.79624        -1.32498
C         -5.19042         1.56027        -1.62355
C         -3.96161         0.81647        -1.03049
C         -2.68101         1.55201        -0.72805
C         -1.35695         0.83595        -0.87931
C         -0.06232         1.60617        -0.88146
C          1.21086         0.91833        -0.44839
C          2.50539         1.64412        -0.70187
C          3.77646         0.82470        -0.81625
C          5.07808         1.51557        -1.03935
C          6.40914         0.78814        -1.04330
C          7.71595         1.50009        -0.82145
C          9.02208         0.72599        -0.70986
C         10.30308         1.42008        -0.18565
C         10.89352         0.55496         0.92896
C         -9.54084         3.03634         0.97188
C         -8.80573         3.70918         0.07043
C         -7.77135         3.07508        -0.86263
C         -6.39841         3.69604        -0.55655
C         -5.16886         3.06904        -1.18591
C         -3.87591         3.78528        -0.88289
C         -2.58326         3.06488        -0.51991
C         -1.36585         3.77198        -1.12953
C         -0.02108         3.14375        -0.76191
C          1.19822         3.77870        -1.46211
C          2.51499         2.94217        -1.54989
C          3.77771         3.77291        -1.17226
C          5.04403         3.00814        -0.87234
C          6.36138         3.66670        -0.56328
C          7.64624         2.92892        -0.38208
C          8.92796         3.67596        -0.23957
C         10.10250         2.87704         0.30721
C         -8.96972         5.19928        -0.17203
C         -7.64944         5.91266         0.08451
C         -6.39257         5.11914        -0.08922
C         -5.16894         5.93079        -0.36961
C         -3.85757         5.21918        -0.42017
C         -2.60924         5.99820        -0.70032
C         -1.40654         5.26764        -1.26783
C         -0.14278         6.11750        -1.58385
C          1.20067         5.29313        -1.55068
C          2.53709         6.04912        -1.39554
C          3.84564         5.27737        -1.39257
C          5.12187         5.91526        -0.84076
C          6.47636         5.14647        -0.93112
C          7.59106         5.72839        -0.05822
C          8.88329         5.02972        -0.10931
C         -7.59445         7.21210         0.45504
C         -6.29245         7.88047         0.85115
C         -5.15332         7.37312        -0.02444
C         -3.81296         8.03149         0.11975
C         -2.70908         7.53052        -0.81222
C         -1.36150         8.17714        -0.47436
C         -0.10370         7.45462        -0.83686
C          1.17620         7.93579        -0.19927
C          2.50088         7.35513        -0.60237
C          3.68998         7.77407         0.26134
C          4.99939         7.04141         0.13328
C          5.96351         7.00418         1.31752
C          7.36773         6.67440         0.88548
C         -6.27035         9.39525         0.87916
C         -5.10869        10.07813         0.86734
C         -3.78639         9.42199         0.66473
C         -2.51362        10.24492         0.45417
C         -1.31410         9.30801         0.50511
C         -0.19449         9.52267         1.22319
C          0.94004         8.50712         1.20275
C          2.16063         8.92007         1.96771
C          3.49940         8.64760         1.52864
C          4.65789         8.80688         2.44852
C          5.82451         8.17264         2.26211
C        -10.68029        -0.48711         1.60642
C         -9.75266        -1.34345         0.76556
C         -8.43045        -0.63982         0.48107
C         -7.40422        -1.41758        -0.26187
C         -6.44289        -0.70522        -1.17915
C         -5.14666        -1.44751        -1.41627
C         -3.86114        -0.67502        -1.31960
C         -2.64453        -1.40337        -0.79422
C         -1.38138        -0.63647        -0.55318
C         -0.07608        -1.38235        -0.40012
C          1.18370        -0.58599        -0.27201
C          2.51538        -1.29446        -0.17443
C          3.81070        -0.54842        -0.22752
C          5.17795        -1.23411        -0.03986
C          6.36155        -0.70833        -0.87183
C          7.65351        -1.46078        -0.61005
C          8.99452        -0.78601        -0.71197
C         10.29196        -1.53089        -0.28957
C         10.88122        -0.78461         0.89467
C         -9.50883        -2.74229         1.34838
C         -8.57253        -3.57436         0.47230
C         -7.59742        -2.90492        -0.43716
C         -6.43279        -3.71053        -0.99392
C         -5.14372        -2.97818        -1.33162
C         -3.82926        -3.69412        -1.17685
C         -2.58632        -2.92590        -0.80093
C         -1.26339        -3.63948        -0.73599
C          0.00182        -2.80927        -0.98327
C          1.29498        -3.55451        -0.57222
C          2.54735        -2.78726        -0.27787
C          3.75062        -3.43899         0.39134
C          5.05537        -2.76940        -0.04575
C          6.33889        -3.47255         0.28111
C          7.48308        -2.50398         0.47262
C          9.32627        -3.97718        -0.19744
C         10.25676        -3.04943        -0.04614
C         -8.57386        -4.91742         0.63954
C         -7.57953        -5.84483         0.05878
C         -6.39848        -5.20817        -0.72492
C         -5.07254        -5.93471        -0.65958
C         -3.79513        -5.18127        -0.86950
C         -2.47630        -5.76749        -0.43726
C         -1.21804        -5.14019        -1.08025
C          0.00614        -5.80551        -0.41425
C          1.21271        -4.97985        -0.05925
C          2.52716        -5.69525         0.18117
C          3.83415        -4.93901         0.12022
C          5.08736        -5.63644         0.58844
C          6.35617        -4.87403         0.82111
C          7.73291        -5.58003         0.91371
C          8.60674        -5.09698        -0.25181
C         -7.39901        -7.12064         0.74022
C         -6.29529        -8.01766         0.46157
C         -5.03883        -7.34008        -0.09147
C         -3.74088        -7.86395         0.45245
C         -2.45772        -7.16340         0.09008
C         -1.25344        -8.02729        -0.16229
C          0.03066        -7.32722        -0.49528
C          1.31219        -8.17698        -0.53648
C          2.52952        -6.83447         1.15623
C          3.49810        -7.82841         1.28802
C          5.33383        -7.05461         0.12062
C          6.42690        -7.78394         0.83255
C          7.58446        -7.09962         1.04158
C         -6.13825        -9.33275         1.14644
C         -4.95480        -9.97548         1.21830
C         -3.67014        -9.24995         1.01023
C         -2.36985        -9.96921         0.90056
C         -1.25640        -9.42877         0.34823
C         -0.00141       -10.27679         0.13199
C          1.30350        -9.48491         0.21067
C          2.43750       -10.04030         0.70697
C          3.67860        -9.27000         1.02256
C          5.03551        -9.87381         0.94589
C          6.23185        -9.23000         0.97069
O         -7.43801        -5.91460        -1.41024
O         -1.64072         4.36182        -2.40815
O          1.90944         1.65668         0.60222
O         -3.59807         1.08512         0.33904
O         -5.82035        -8.19854        -0.94138
O          5.76505        -3.47855        -1.07201
O         -2.01091        -3.38823         0.46430
O          3.30157        -5.62112        -1.03580
O         -0.63307         8.53501        -1.68364
O          9.21665        -0.04959        -1.93387
O          0.44857        -1.09682         0.91090
O         -6.19559         4.00567         0.85548
O         -8.05352         3.41696        -2.17993
O          2.15991        -7.94134        -1.37752
O         -7.22002        -1.07848         1.17012
O          6.92555        -1.56616        -1.86945
O         -2.28681        -0.93160         0.54036
O          1.06896         4.43590        -2.73731
O         -0.64673         1.12869        -2.12574
O         -4.44186         3.79305        -2.21780
O          0.19656        -5.24988         0.92333
O         -0.81929        -7.86823        -1.56708
O         -4.37978        -5.95151        -1.95689
O          6.76613         3.25380         0.77987
O         -4.40395        -1.02519        -2.60240
O          5.49612        -5.23862         1.94772
O         -9.02792         1.01257        -1.13555
O         -5.43797         6.95347        -1.38295
O          3.86582         9.19328         0.18670
O          3.43680        -8.66966         2.42891
O          8.04691        -2.38021         1.54841
O          4.12570         3.45206         0.20508
O         -7.56727        -3.33237        -1.82066
O          1.97655         8.57741        -1.20955
O          4.32308         0.92879        -2.15361
O          5.43580         7.27983        -1.23003
O         -2.28733        -6.01184         0.97691
O          2.31113        -3.33169        -1.60446
O          4.97090        -7.45063        -0.97980
O         -4.40709        -3.48604        -2.48372
O         -3.47225         8.25342         1.52397
O          3.11844        -0.72828         1.03794
O          3.35468         5.90859        -2.59298
O         -2.94312         5.56287         0.65766
O         -6.95129        -0.09467        -2.39603
O          6.85404         5.11208        -2.26769
O         -3.70298        -8.06844         1.90721
O          7.16558         1.30699        -2.16461
O          1.94755        -6.45277         2.32874
H          2.08307        -7.17275         2.98406
O         -8.36298         1.58090         2.45999
H         -8.72692         2.15040         3.16911
O         -1.20446        -5.29574        -2.48815
H         -1.17165        -6.25594        -2.70315
O          8.34593        -5.12867         2.12766
H          7.69394        -5.22103         2.85345
O          0.02158        -2.60386        -2.40844
H          0.91743        -2.82781        -2.75459
O         -3.05801         7.91058        -2.14410
H         -2.24094         7.83846        -2.69466
O          0.46061         7.32334         1.93680
H         -0.02670         7.61693         2.73633
O         -8.94986        -2.64411         2.66060
H         -8.15019        -2.07137         2.60520
O          3.59480        -3.28233         1.81025
H          4.25924        -3.85816         2.26367
O         11.25471         1.48346        -1.25509
H         11.39242         0.55599        -1.57156
O        -10.00566         5.76777         0.62037
H         -9.68642         5.84186         1.54280
O         -2.55091        10.90717        -0.80900
H         -2.42632        10.24488        -1.52296
O         -6.00626         7.42589         2.20439
H         -5.07161         7.68091         2.40127
O         -5.00846         1.55875        -3.03559
H         -5.57603         0.85293        -3.42410
O         -0.31240         6.50768        -2.95504
H         -0.32841         5.68247        -3.49217
O        -10.39057        -1.54757        -0.51496
H        -10.36926        -0.70090        -1.01537
O          9.86363         2.80942         1.72537
H          9.62030         3.70134         2.04771
O          0.19481         3.51489         0.61469
H         -0.63278         3.33025         1.12808
O         11.24285        -1.36283        -1.37457
H         10.76966        -1.53110        -2.21856
O          5.50201         5.86475         2.12505
H          5.92003         5.03434         1.79898
O         -2.40408         3.19032         0.91461
H         -3.06976         2.61552         1.35895
O          2.60382         2.50358        -2.90172
H          2.33662         3.24941        -3.48731
O          0.01507       -11.38266         1.02284
H          0.08888       -11.05052         1.94081
O          5.59034        -0.86841         1.30018
H          4.79827        -0.93415         1.88705
H         11.34944        -1.36554         1.70354
H         11.37743         1.06849         1.77262
H         11.05833         3.43933         0.11831
H          9.79304         5.58603         0.16989
H          8.19832         7.02443         1.51991
H          6.67002         8.37746         2.93600
H          4.56160         9.57048         3.23561
H          2.00872         9.11289         3.04265
H         -0.11137        10.39305         1.89197
H         -2.42933        11.02968         1.24727
H         -5.11314        11.17695         0.93125
H         -7.21985         9.93910         0.99991
H         -8.53339         7.77543         0.57677
H         -9.24987         5.33377        -1.25057
H        -10.28759         3.58866         1.56818
H        -11.28263         1.39088         2.36508
H        -11.57989        -0.98818         1.99717
H        -10.48474        -3.27939         1.44136
H         -9.28522        -5.35534         1.35724
H         -8.00224        -7.31498         1.63942
H         -7.06243        -9.85107         1.44248
H         -4.90703       -11.00207         1.61097
H         -2.33188       -11.01590         1.24271
H         -0.07040       -10.69899        -0.90851
H          2.39252       -11.07766         1.08412
H          5.05205       -10.97517         0.98593
H          7.14258        -9.84576         1.05044
H          8.46323        -7.62444         1.45156
H          8.49006        -5.62032        -1.21735
H         11.25918        -3.42505         0.24157
