         732
 CSIRO Nanostructure Databank - Neutral Graphene Oxide Data Set
C         22.84643        24.54474        -0.42300
C         21.64333        25.23376        -0.29522
C         22.83451        27.28685         0.26123
C         21.63199        26.58789         0.03290
C         22.83306        28.74547         0.44454
C         21.62446        29.48208         0.43406
C         22.82402        31.60748         0.43865
C         21.62131        30.86624         0.45248
C         22.82775        33.06079         0.40398
C         21.62494        33.80071         0.35090
C         22.81952        35.92747         0.27579
C         21.62450        35.19038         0.28932
C         22.80779        37.39258         0.23156
C         21.60692        38.15311         0.20601
C         22.85134        40.25428         0.05903
C         21.63197        39.53139         0.07443
C         22.91896        41.69302        -0.12562
C         21.75289        42.46350        -0.42531
C         23.01610        44.55481        -0.59733
C         21.81584        43.81971        -0.70716
C         23.13176        45.94225        -0.95714
C         22.00431        46.66936        -1.37683
C         23.27104        48.70557        -1.74224
C         22.08886        48.01586        -1.80121
C         25.38988        23.10100        -0.52204
C         25.34952        24.48855        -0.28472
C         24.07298        25.19660        -0.18189
C         25.32690        27.23037         0.50746
C         24.05436        26.56682         0.17859
C         25.31812        28.75148         0.67549
C         24.04302        29.46962         0.51109
C         25.30642        31.60691         0.45114
C         24.05452        30.89189         0.46455
C         25.30430        33.03603         0.41679
C         24.06153        33.76602         0.40454
C         25.29446        35.90020         0.29537
C         24.06317        35.20555         0.33646
C         25.30443        37.37157        -0.04524
C         24.02139        38.09742         0.21512
C         25.31094        40.22086         0.35948
C         24.06090        39.52007         0.21173
C         25.37237        41.62709         0.21136
C         24.16165        42.35157        -0.05406
C         25.55304        44.50568        -0.26915
C         24.20238        43.82444        -0.13785
C         25.61711        45.87946        -0.81426
C         24.43307        46.59392        -0.98061
C         25.87634        48.67274        -1.51790
C         24.48048        48.04659        -1.25104
C         26.00017        49.90306        -2.32224
C         27.83095        23.09124        -0.53319
C         26.59220        22.41966        -0.63223
C         27.82861        24.50096        -0.31843
C         26.58534        25.19177        -0.16691
C         27.80332        27.31152         0.19165
C         26.59917        26.58503         0.15117
C         27.79238        28.75221         0.34947
C         26.58117        29.46658         0.46983
C         27.78041        31.60339         0.41621
C         26.54571        30.89319         0.43347
C         27.77779        33.03129         0.39279
C         26.53654        33.74016         0.38405
C         27.74837        35.88503         0.35269
C         26.53320        35.18814         0.35251
C         27.72947        37.33862         0.44921
C         26.48436        38.09074         0.53140
C         27.71566        40.22021         1.01709
C         26.51904        39.49869         0.65412
C         27.79645        41.62041         0.75651
C         26.64399        42.28212         0.25328
C         28.03938        44.32642        -0.38090
C         26.73666        43.59062        -0.49740
C         28.13057        45.63670        -0.87625
C         26.92144        46.45217        -1.10191
C         28.39965        48.45051        -1.57744
C         27.04251        47.77745        -1.47968
C         28.43900        49.67931        -2.48216
C         27.19591        50.32963        -2.80797
C         30.32055        20.28486        -0.75189
C         29.12662        20.96882        -0.74837
C         30.31076        23.10361        -0.56597
C         29.08640        22.38371        -0.62265
C         30.30513        24.52519        -0.37885
C         29.06360        25.21973        -0.23075
C         30.28453        27.35240         0.00603
C         29.05453        26.63117        -0.01490
C         30.27527        28.78288         0.15194
C         29.03131        29.46948         0.29310
C         30.24817        31.60520         0.46015
C         29.01577        30.89131         0.39260
C         30.22947        33.02974         0.58650
C         29.01991        33.71704         0.43818
C         30.11147        35.76873         1.26531
C         29.08992        35.21023         0.25511
C         30.17191        37.26513         1.22414
C         28.95027        38.03351         0.95586
C         30.12845        39.92971         1.93254
C         28.77139        39.33330         1.69569
C         30.17653        42.03266         1.56274
C         29.05041        42.40760         0.81752
C         30.45167        44.31823         0.08166
C         29.18596        43.65123         0.10876
C         30.56231        45.59702        -0.54357
C         29.41405        46.22029        -1.05206
C         30.87282        48.13420        -1.87334
C         29.50789        47.44438        -1.93398
C         30.91486        49.55464        -2.31561
C         29.67405        50.24926        -2.75976
C         31.12360        52.14270        -3.41519
C         29.89917        51.50474        -3.42398
C         32.81495        18.89851        -0.12511
C         32.78726        20.23715        -0.57184
C         31.56660        20.96805        -0.70880
C         32.77328        23.13941        -0.68782
C         31.55792        22.40608        -0.69012
C         32.78022        24.54558        -0.45746
C         31.53707        25.24071        -0.30783
C         32.75842        27.38871        -0.11420
C         31.52553        26.66142        -0.13157
C         32.75278        28.81470        -0.02050
C         31.49724        29.51367         0.12231
C         32.71072        31.68353         0.32724
C         31.48415        30.92936         0.30171
C         32.71601        33.02080         0.69613
C         31.47856        33.73668         0.82734
C         32.66398        35.88892         1.13903
C         31.46759        35.10799         1.10581
C         32.59168        37.27389         1.15769
C         31.34378        37.97014         1.28351
C         32.63738        40.14865         1.77920
C         31.34066        39.41130         1.56073
C         32.69306        41.68928         1.71603
C         31.49522        42.47407         1.30574
C         32.87301        44.39783         0.66895
C         31.62067        43.68253         0.59955
C         32.92809        45.72238         0.25140
C         31.83016        46.31361        -0.46714
C         33.17790        48.34775        -0.85376
C         31.95399        47.59321        -1.01339
C         33.23740        49.78606        -1.23699
C         32.04669        50.43674        -1.89675
C         33.45858        52.38781        -2.48485
C         32.23943        51.68976        -2.63888
C         33.65185        53.67831        -3.06461
C         35.27255        18.86868        -0.11348
C         34.00912        18.23033         0.06330
C         35.32830        20.21172        -0.55111
C         34.06152        20.88901        -0.88839
C         35.30792        23.19135        -0.88262
C         34.02261        22.44570        -1.01106
C         35.26737        24.61351        -0.52197
C         34.01621        25.27869        -0.40429
C         35.23231        27.42397        -0.23177
C         34.00146        26.69743        -0.23359
C         35.20847        28.85587        -0.18253
C         33.97009        29.53177        -0.08913
C         35.23389        31.71392        -0.00712
C         33.92545        31.02720        -0.27774
C         35.26442        33.11488         0.47529
C         34.00173        33.73313         0.96297
C         35.12469        35.98644         0.51909
C         34.02726        35.23377         1.28954
C         34.85190        37.28581         0.22085
C         33.68859        38.13463         0.61700
C         35.24570        40.16425         1.47586
C         33.94470        39.39515         1.49257
C         35.25815        41.64569         1.71716
C         34.01070        42.37145         1.55070
C         35.20947        44.53050         1.57064
C         34.01640        43.73388         1.25912
C         35.32449        45.90935         1.07679
C         34.04073        46.62114         0.72366
C         35.44830        48.63639         0.08585
C         34.23678        47.82530        -0.15572
C         35.76374        49.73036        -0.91620
C         34.52265        50.48133        -1.31826
C         35.85375        52.50850        -1.68838
C         34.59710        51.77880        -1.80491
C         35.96443        53.79120        -2.25565
C         34.84592        54.34373        -2.95470
C         37.76156        16.12073         0.70888
C         36.53730        16.83331         0.57465
C         37.79537        18.81101        -0.25687
C         36.50187        18.14122         0.14740
C         37.73403        20.30350        -0.05803
C         36.57106        20.95211        -0.40584
C         37.72334        23.19970        -0.05409
C         36.59684        22.42835        -0.58468
C         37.73216        24.59129        -0.17644
C         36.48852        25.30627        -0.37584
C         37.71033        27.45542        -0.33898
C         36.47735        26.73190        -0.29267
C         37.65668        28.88183        -0.35480
C         36.44903        29.58302        -0.26309
C         37.65488        31.81830        -0.16014
C         36.42666        31.04503        -0.15992
C         37.66504        33.20386        -0.04757
C         36.46670        33.94961         0.21139
C         37.69621        36.10996         0.08709
C         36.42484        35.35057         0.20802
C         37.81706        37.52861         0.35329
C         36.68637        38.43237         0.25942
C         37.77976        40.13092         1.62807
C         36.53746        39.59339         0.96141
C         37.77116        41.65193         1.68024
C         36.48065        42.31259         1.83519
C         37.76004        44.54535         1.82974
C         36.49862        43.78579         1.94540
C         37.73026        45.90557         1.61093
C         36.51404        46.58622         1.19469
C         37.91498        48.70966         0.73848
C         36.60185        48.01914         0.81083
C         37.95656        50.04424         0.27563
C         36.89229        50.62236        -0.46009
C         38.15774        52.73150        -0.73021
C         36.94998        51.94955        -0.93674
C         38.26881        54.03608        -1.32340
C         37.19068        54.55766        -2.10086
C         38.46204        56.60157        -2.46074
C         37.32772        55.82700        -2.68624
C         40.26121        14.58487         0.52873
C         40.24983        15.99266         0.59428
C         38.99089        16.73861         0.55099
C         40.20744        18.87689         0.44575
C         39.03574        18.16152         0.30264
C         40.22548        20.32081         0.41563
C         38.87320        20.98182         0.66819
C         40.18240        23.26920         0.56595
C         38.87152        22.50416         0.53499
C         40.19692        24.66466         0.09412
C         38.97535        25.33630        -0.08909
C         40.21144        27.43611        -0.47417
C         38.96291        26.75415        -0.33313
C         40.21333        28.89841        -0.70285
C         38.91096        29.63232        -0.56562
C         40.22857        31.80379        -0.38568
C         38.93615        31.07956        -0.20038
C         40.14765        33.25195        -0.76608
C         38.87644        33.97020        -0.43556
C         40.19183        36.06771        -0.03800
C         38.90975        35.42053        -0.13624
C         40.25869        37.41888         0.43324
C         39.04273        38.12111         0.68507
C         40.21277        40.24863         1.04722
C         39.05414        39.53293         1.06091
C         40.16021        41.76281         0.99005
C         38.94908        42.35336         1.67876
C         40.28964        44.51048         1.82373
C         39.01955        43.77946         2.19013
C         40.31243        45.93440         2.01179
C         38.93627        46.73743         1.84762
C         40.28439        48.81895         1.47425
C         39.03787        48.10702         1.36528
C         40.33908        50.20796         1.11545
C         39.05404        50.94218         0.79919
C         40.47113        52.91926         0.08228
C         39.24097        52.19972        -0.01378
C         40.56051        54.25669        -0.39199
C         39.43907        54.82567        -1.10081
C         40.63143        57.03615        -1.31062
C         39.50424        56.13733        -1.65325
C         40.91045        58.23270        -2.10480
C         42.67349        14.58887         0.39299
C         41.46809        13.89373         0.45553
C         42.69428        15.99908         0.43759
C         41.47176        16.69895         0.57391
C         42.71725        18.90605         0.40657
C         41.47403        18.17966         0.87462
C         42.69632        20.30256         0.31074
C         41.43127        21.00913         0.46114
C         42.73455        23.23044         0.31895
C         41.46296        22.48775         0.63392
C         42.66501        24.64090        -0.09324
C         41.45324        25.33499        -0.12842
C         42.69888        27.48195        -0.42860
C         41.43440        26.75619        -0.40522
C         42.68893        28.90584        -0.42522
C         41.49005        29.64179        -0.53598
C         42.70504        31.81367        -0.58243
C         41.48769        31.04789        -0.58272
C         42.68130        33.19844        -0.70800
C         41.44566        34.02736        -1.01320
C         42.63418        36.09388        -0.18746
C         41.42734        35.40233        -0.33225
C         42.69229        37.46430         0.22175
C         41.49517        38.11175         0.53716
C         42.69519        40.32803         0.50628
C         41.53714        39.52655         1.06982
C         42.69986        41.80895         0.77190
C         41.47546        42.45465         1.25684
C         42.76552        44.56587         1.50333
C         41.50019        43.83654         1.50818
C         42.78024        45.97297         1.68799
C         41.54179        46.69011         1.77960
C         42.74536        48.81522         1.95375
C         41.48894        48.08934         1.73614
C         42.75082        50.31889         1.68096
C         41.53694        50.93586         1.13241
C         42.86640        52.99458         0.72710
C         41.62889        52.28677         0.65190
C         42.92895        54.37416         0.31278
C         41.77777        54.99088        -0.20211
C         43.10631        57.13196        -0.60275
C         41.81416        56.43149        -0.52772
C         43.16321        58.38726        -1.18330
C         42.08149        58.91610        -1.94545
C         45.18549        16.05523         0.01220
C         43.93283        16.75506         0.27397
C         45.18488        18.85038        -0.18638
C         43.91566        18.14791         0.24573
C         45.18388        20.34418         0.05273
C         43.93924        21.04899         0.09990
C         45.17890        23.16744        -0.14945
C         43.95643        22.45091         0.02655
C         45.19031        24.58299        -0.31323
C         43.90105        25.29050        -0.66036
C         45.18534        27.45216        -0.34203
C         43.92417        26.77297        -0.39112
C         45.21532        28.87535        -0.33574
C         43.94628        29.64470        -0.05678
C         45.17427        31.75064        -0.57682
C         43.97192        31.09283        -0.49023
C         45.21761        33.19308        -0.59470
C         43.94842        33.92993        -0.75440
C         45.15810        36.04021         0.04979
C         43.91592        35.41261        -0.49461
C         45.16400        37.51368         0.07946
C         43.97223        38.19621         0.22287
C         45.17540        40.36176         0.46075
C         43.99254        39.63316         0.39322
C         45.19861        41.76864         0.80062
C         43.99476        42.48668         0.95821
C         45.26086        44.53897         1.44647
C         44.00483        43.86486         1.31138
C         45.27403        45.96456         1.68889
C         44.02288        46.68876         1.75104
C         45.23090        48.83652         2.00428
C         44.02411        48.09411         1.92226
C         45.25338        50.22723         1.75334
C         44.05132        50.97001         1.48471
C         45.30671        53.10764         1.47772
C         44.05538        52.32971         1.16145
C         45.35070        54.49935         0.90309
C         44.18752        55.11784         0.40430
C         45.50790        57.15030         0.04247
C         44.27313        56.46781        -0.05599
C         46.37725        16.68833         0.04223
C         47.72543        18.86857         0.03473
C         46.41301        18.14811         0.42896
C         47.67802        20.34660         0.45869
C         46.39298        21.03950         0.06072
C         47.65170        23.15655        -0.21255
C         46.41169        22.45651        -0.07032
C         47.65850        24.56481        -0.34757
C         46.41157        25.28003        -0.35865
C         47.65962        27.42431        -0.31213
C         46.42217        26.72791        -0.38182
C         47.65395        28.84145        -0.25059
C         46.43739        29.55230        -0.35914
C         47.68369        31.76777        -0.31770
C         46.47126        31.00141        -0.76185
C         47.65470        33.13239        -0.34448
C         46.41450        33.86729        -0.45027
C         47.72066        36.05031        -0.02357
C         46.44413        35.29150        -0.03051
C         47.71805        37.44829         0.07851
C         46.45036        38.20082        -0.05099
C         47.72468        40.33414         0.60470
C         46.46262        39.70632         0.16897
C         47.69008        41.66422         1.01397
C         46.45684        42.41970         1.03713
C         47.75427        44.46532         1.62453
C         46.47963        43.80175         1.36166
C         47.71125        45.88057         2.04634
C         46.47081        46.63500         1.94436
C         47.75802        48.78261         1.93398
C         46.49010        48.08569         2.39092
C         47.71397        50.21844         1.69172
C         46.52358        50.90432         1.59953
C         47.79697        53.08619         1.52249
C         46.55997        52.32780         1.08587
C         47.78070        54.50653         1.44881
C         46.59069        55.18885         0.97987
C         46.63667        56.53777         0.55161
C         50.10543        18.97706         0.70042
C         48.97362        18.24601         0.61790
C         50.16750        20.37134         0.26779
C         48.94029        21.05306         0.01620
C         50.09813        23.12019        -0.68309
C         48.88515        22.41596        -0.27823
C         50.12899        24.58553        -0.66783
C         48.90652        25.27940        -0.48945
C         50.14954        27.38644        -0.55961
C         48.91925        26.70586        -0.43136
C         50.21071        28.81828        -0.22072
C         48.91420        29.55376         0.03346
C         50.21034        31.69720        -0.36185
C         48.93647        31.07286         0.15933
C         50.20183        33.15625        -0.54017
C         48.91184        33.90917        -0.45448
C         50.17582        36.03067        -0.14228
C         48.94273        35.34890        -0.15245
C         50.17751        37.45753         0.05499
C         48.94512        38.17127         0.16643
C         50.19501        40.23012         0.66354
C         48.95692        39.58075         0.48167
C         50.25035        41.59376         1.22299
C         48.93675        42.33063         1.43832
C         50.30632        44.46701         1.87342
C         48.95817        43.79932         1.57173
C         50.26347        45.95793         1.60708
C         49.05909        46.66129         2.01316
C         50.11243        48.82217         1.15277
C         48.94080        48.11239         1.79433
C         50.15757        50.26284         1.56544
C         48.97836        50.94807         1.69309
C         50.18814        53.08367         2.37435
C         48.95028        52.38953         1.85879
C         50.12604        54.56901         2.16905
C         48.99612        55.20883         1.76182
C         52.58217        20.61345         0.88089
C         51.39676        21.07403         0.23889
C         52.65491        23.21673        -0.28887
C         51.45900        22.38377        -0.41087
C         52.63540        24.58133        -0.73483
C         51.36769        25.27187        -0.80739
C         52.61319        27.41734        -0.94635
C         51.37455        26.69979        -0.78970
C         52.61233        28.87008        -0.85082
C         51.44614        29.56776        -0.50213
C         52.64986        31.75776        -0.65559
C         51.41430        31.01104        -0.47770
C         52.67934        33.17087        -0.53524
C         51.45249        33.91300        -0.39092
C         52.67524        36.08200        -0.50362
C         51.41336        35.29391        -0.28476
C         52.67036        37.39580         0.23576
C         51.40712        38.16444         0.17349
C         52.67967        40.27349         0.44532
C         51.42103        39.53995         0.44272
C         52.62941        41.70692         0.54725
C         51.48384        42.39292         1.00368
C         52.66846        44.56101         0.90730
C         51.48840        43.79273         1.18883
C         52.67576        45.98846         1.01296
C         51.43634        46.68403         1.27719
C         52.62304        48.84337         1.06941
C         51.42636        48.10331         1.25766
C         52.62310        50.26434         1.17031
C         51.47626        50.91934         1.88679
C         52.45125        53.10426         1.18539
C         51.41085        52.41961         1.77232
C         53.73278        21.36864         0.90570
C         55.04547        23.38560         0.17663
C         53.80125        22.66876         0.31122
C         55.08673        24.53449        -0.66167
C         53.85990        25.27372        -0.95368
C         54.99534        27.49416        -1.53698
C         53.82105        26.70739        -1.19443
C         55.02083        28.92051        -1.38380
C         53.82948        29.61656        -1.03697
C         55.08583        31.76037        -1.03367
C         53.85502        31.03672        -0.89979
C         55.12395        33.16739        -0.82040
C         53.91869        33.88297        -0.57892
C         55.17531        35.97920        -0.35129
C         53.95702        35.29482        -0.37728
C         55.31761        37.36069         0.28239
C         53.97603        38.11486         0.44363
C         55.15671        40.33298         0.28373
C         53.90508        39.59046         0.36833
C         55.11560        41.76495        -0.08404
C         53.80006        42.49131         0.14659
C         55.08286        44.62080         0.30342
C         53.85749        43.92282         0.44459
C         55.09267        46.04808         0.43284
C         53.86532        46.72580         0.73113
C         55.01053        48.91427         0.43816
C         53.84168        48.15619         0.75489
C         54.95611        50.34035         0.38844
C         53.73618        51.03057         0.76836
C         53.62192        52.44293         0.75205
C         57.46923        23.55142         0.44017
C         56.26826        22.92256         0.71754
C         57.59871        24.55230        -0.56800
C         56.36588        24.90199        -1.16357
C         57.36361        27.62164        -2.21748
C         56.17522        26.92531        -2.06148
C         57.42588        29.00942        -2.00325
C         56.22893        29.66454        -1.59594
C         57.50746        31.79842        -1.55699
C         56.27959        31.07502        -1.39266
C         57.51558        33.20146        -1.38007
C         56.34745        33.88862        -0.97208
C         57.55798        36.05703        -1.00143
C         56.37186        35.30486        -0.74101
C         57.51320        37.49955        -0.91188
C         56.43901        38.15799        -0.34998
C         57.56056        40.42818        -0.64174
C         56.49532        39.60124        -0.09108
C         57.58872        41.82265        -0.45518
C         56.36997        42.53874        -0.08286
C         57.63988        44.65240         0.09155
C         56.31853        43.91362         0.03792
C         57.52109        46.15080        -0.08662
C         56.29248        46.80188         0.18659
C         57.41098        48.99061        -0.13425
C         56.24046        48.23798         0.15836
C         57.31471        50.40014        -0.20909
C         56.12119        51.05421         0.03694
C         59.99786        24.73140         0.05256
C         58.92906        25.22972        -0.73226
C         60.35155        27.24854        -1.10469
C         59.22441        26.44131        -1.43288
C         60.46656        28.64676        -1.55401
C         58.63433        29.74246        -2.17220
C         60.03350        31.73605        -1.70782
C         58.73198        31.09570        -1.87159
C         60.06426        33.21143        -1.89577
C         58.71764        33.97334        -1.72727
C         59.96344        36.12661        -1.61904
C         58.74939        35.41569        -1.43953
C         59.94561        37.56917        -1.66038
C         58.65181        38.25024        -1.49163
C         59.94379        40.48964        -1.46778
C         58.65768        39.78082        -1.37336
C         59.94029        41.91829        -1.22466
C         58.74951        42.56274        -0.81943
C         59.97407        44.78711        -0.82306
C         58.64320        44.06990        -0.90380
C         59.95304        46.19740        -0.62954
C         58.69953        46.87712        -0.36198
C         59.87058        49.02596        -0.51613
C         58.67347        48.31376        -0.35326
C         61.17950        25.43823         0.26756
C         61.32374        26.72971        -0.22807
C         61.18917        29.62977        -0.92178
C         61.12602        31.03581        -1.23576
C         61.26098        34.02464        -1.67588
C         61.19928        35.38895        -1.66567
C         61.07156        38.34893        -1.92340
C         61.06983        39.75907        -1.83509
C         61.12177        42.70068        -1.38901
C         61.13894        44.06835        -1.14690
C         61.13368        46.97484        -0.75381
C         61.09019        48.35770        -0.69002
O         56.13586        39.98998         1.28936
O         34.86057        33.03328         1.93687
O         35.63123        48.92771         1.50912
O         58.48293        26.84883        -2.56257
O         49.64471        41.67235         2.55357
O         44.04376        34.93380        -1.85909
O         42.30553        22.97012         1.72935
O         49.66434        28.98453         1.16650
O         39.53084        46.45814         3.14136
O         33.99559        21.59115        -2.17971
O         31.36100        48.48146        -3.23687
O         25.19798        48.83493        -0.22858
O         35.62347        44.34792         2.96581
O         42.44749        41.21698        -0.62310
O         42.61845        49.78894         3.04344
O         54.25955        42.09004        -1.21542
O         49.49798        33.60093        -1.79057
O         40.77034        57.21535         0.13698
O         46.50849        39.14232        -1.18626
O         32.22583        50.55422        -0.45527
O         50.84928        22.46513        -1.73661
O         53.24959        37.47774         1.57233
O         58.25454        39.10165        -2.61911
O         48.47584        46.16877         3.28837
O         32.64814        40.94897         2.98118
O         36.24837        22.86463        -1.94831
O         45.69818        35.42957         1.27049
O         39.35210        23.12127         1.77787
O         59.26976        33.63804        -3.04218
O         30.02930        41.13317         2.62927
O         28.69054        38.06706        -0.47751
O         39.20288        33.55555        -1.84652
O         59.73605        29.03724        -2.69735
O         56.29303        25.57346        -2.39020
O         34.81283        39.31124         2.64292
O         35.69787        37.99770        -0.64236
O         39.47410        29.35503        -1.90075
O         24.92396        44.42855         1.02860
O         39.73815        31.46914         0.98064
O         25.33750        27.85140         1.83942
O         39.88632        42.04419        -0.44036
H         40.70924        41.77796        -0.92679
O         58.19091        44.43488         1.42267
H         57.56497        44.80902         2.07715
O         50.54137        44.31876         3.31028
H         49.81032        44.80261         3.76385
O         41.50633        18.27159         2.34686
H         42.36053        17.89306         2.64518
O         33.16480        38.70971        -0.62663
H         33.91180        38.73553        -1.26702
O         46.25239        18.21351         1.87550
H         46.92661        17.62901         2.28144
O         49.81101        48.81007        -0.30021
H         48.93812        49.24297        -0.41803
O         52.63479        36.49852        -1.91556
H         52.45105        35.70376        -2.46066
O         34.31676        35.37946         2.70061
H         34.82676        34.57700         2.96826
O         25.48370        37.40580        -1.52659
H         25.49458        38.34931        -1.79610
O         26.62269        43.21939        -1.92156
H         27.43206        42.72361        -2.16861
O         28.23815        39.00031         3.01096
H         28.33635        39.79924         3.57345
O         47.86041        18.84869        -1.41343
H         48.15076        17.95297        -1.68440
O         29.59532        35.45388        -1.08716
H         29.43167        36.40727        -1.28574
O         58.11091        44.35616        -2.23570
H         58.70965        43.94474        -2.89375
O         46.56711        52.24878        -0.36837
H         47.43778        51.89751        -0.64860
O         46.51792        48.07010         3.85382
H         47.25613        47.46652         4.11027
O         29.27466        46.98423        -3.28226
H         29.97054        47.40141        -3.84640
O         43.89347        29.73298         1.42273
H         43.85331        28.81645         1.77110
O         45.21645        18.69340        -1.63060
H         46.10057        19.01082        -1.93933
O         45.35365        53.23355         2.92934
H         44.50493        53.61972         3.23125
O         55.78757        37.07152         1.63227
H         54.98444        36.93723         2.18764
O         48.97530        31.38766         1.59273
H         49.43924        30.62980         2.02551
O         37.90452        18.61393        -1.71696
H         37.10308        19.00563        -2.12711
O         38.54462        51.41865         2.10271
H         38.29774        50.62812         2.62962
O         36.23303        48.99978        -2.10432
H         36.44052        49.66160        -2.79772
O         28.70240        48.91585        -0.23325
H         27.92478        49.40699         0.10789
O         33.55223        47.17324         1.99677
H         34.17656        47.90065         2.24331
O         43.77459        25.14152        -2.13469
H         44.50918        25.64846        -2.54251
O         46.63610        30.92111        -2.23535
H         46.69250        31.83972        -2.57821
O         41.52756        34.30639        -2.43348
H         40.60073        34.32744        -2.77248
O         39.02490        43.68336         3.65223
H         39.06114        44.60785         3.99341
O         50.25227        52.84665         3.84093
H         49.37537        53.08108         4.21441
O         37.77780        39.69414         3.02233
H         36.85484        39.74941         3.35677
O         29.60699        35.41182         2.58960
H         30.25383        35.72649         3.25591
O         47.71339        20.42399         1.91176
H         46.94540        19.90160         2.24890
O         33.71225        31.21899        -1.73749
H         34.39242        30.68875        -2.20626
O         38.57848        20.68962         2.06882
H         39.03188        21.38909         2.59737
O         51.68853        50.60216         3.31320
H         51.15946        51.26602         3.82720
O         41.86840        39.42327         2.49832
H         41.10703        39.00905         2.95885
H         22.82085        23.48566        -0.70966
H         20.69410        24.70972        -0.47295
H         20.66480        27.10222         0.09863
H         20.65800        28.96211         0.41616
H         20.65284        31.38320         0.45723
H         20.65709        33.28266         0.34995
H         20.65664        35.70760         0.24508
H         20.63148        37.64889         0.23906
H         20.67611        40.06761        -0.00069
H         20.77827        41.96275        -0.49570
H         20.88885        44.32512        -1.01054
H         21.01632        46.19167        -1.38620
H         23.30037        49.77542        -1.98714
H         21.17546        48.52256        -2.14293
H         24.45848        22.52689        -0.60982
H         25.09734        50.49601        -2.52293
H         26.56038        21.33663        -0.80676
H         27.22576        51.24324        -3.41971
H         30.30489        19.18924        -0.82502
H         28.19407        20.39380        -0.81189
H         31.21144        53.08839        -3.96896
H         29.06224        51.99011        -3.94654
H         31.87467        18.37399         0.09184
H         32.82108        54.16345        -3.59429
H         33.97484        17.18756         0.40338
H         34.92210        55.34140        -3.40512
H         37.70470        15.05564         0.97073
H         35.60840        16.28454         0.78496
H         38.50625        57.60668        -2.89994
H         36.53037        56.24988        -3.30955
H         39.31954        14.02013         0.53012
H         40.18106        58.57590        -2.85090
H         43.60728        14.01776         0.31221
H         41.46904        12.79548         0.42098
H         44.10413        58.95311        -1.19050
H         42.24887        59.84633        -2.50682
H         45.15853        14.98075        -0.21608
H         45.58381        58.19467        -0.28666
H         47.31339        16.13610        -0.13359
H         47.57673        57.10347         0.59586
H         51.02474        18.49710         1.06608
H         48.97438        17.18273         0.90579
H         51.00249        55.16193         2.46895
H         49.00815        56.30653         1.69817
H         52.58651        19.63254         1.37531
H         52.41370        54.20108         1.10746
H         54.62344        20.95795         1.39966
H         54.45969        53.06086         0.40379
H         58.34656        23.18313         0.98309
H         56.26970        22.07503         1.41549
H         58.19553        51.00154        -0.46841
H         56.09951        52.15001        -0.02775
H         59.93012        23.74187         0.51809
H         59.87653        50.12328        -0.48874
H         61.97215        24.99181         0.88240
H         62.21950        27.31621         0.01633
H         61.88848        29.34525        -0.12140
H         62.01527        31.61791        -0.94483
H         62.23318        33.52908        -1.54224
H         62.14062        35.95067        -1.58347
H         62.02935        37.85915        -2.14712
H         62.02745        40.27418        -1.99358
H         62.06143        42.20794        -1.67148
H         62.10584        44.58734        -1.20843
H         62.10094        46.48310        -0.92111
H         62.01636        48.93983        -0.79375
