         762
 CSIRO Nanostructure Databank - Neutral Graphene Oxide Data Set
C         23.01786        24.53629        -2.38812
C         21.83293        25.18532        -2.27512
C         22.91657        27.30264        -1.66395
C         21.77235        26.58089        -1.95177
C         22.85940        28.77918        -1.45665
C         21.60123        29.51085        -1.26971
C         22.78912        31.52250        -0.44672
C         21.59925        30.80947        -0.86890
C         22.70429        32.93902        -0.10147
C         21.60238        33.72905        -0.37290
C         22.69659        35.86707         0.18315
C         21.59411        35.15177        -0.21902
C         22.69630        37.35439         0.38622
C         21.59726        38.20583        -0.10168
C         22.82566        40.30807         0.40544
C         21.65799        39.56073        -0.02526
C         22.80793        41.72116         0.45987
C         21.66900        42.50887         0.12380
C         22.87102        44.63232         0.45897
C         21.68441        43.88754         0.18432
C         22.87135        46.07932         0.53591
C         21.67573        46.82455         0.50896
C         22.89729        48.89502         0.80551
C         21.69520        48.21368         0.64877
C         25.24712        23.07027        -1.27330
C         25.39128        24.43409        -1.49751
C         24.33443        25.24669        -2.22239
C         25.33909        27.23880        -1.09964
C         24.19396        26.63520        -1.63105
C         25.22400        28.58331        -0.49810
C         24.09236        29.46668        -0.89448
C         25.21207        31.45883         0.16262
C         23.98785        30.81799        -0.30301
C         25.17145        32.82014         0.46830
C         23.89515        33.57353         0.49561
C         25.21487        35.83244         0.62851
C         23.88258        35.11558         0.64621
C         25.28965        37.33029         0.61255
C         23.99140        38.09197         0.69911
C         25.27397        40.22690         0.79253
C         24.05750        39.58154         0.61256
C         25.32956        41.68124         1.01438
C         24.00665        42.46385         0.89002
C         25.31872        44.60046         0.77995
C         24.07607        43.92521         0.68358
C         25.34301        46.03760         0.73059
C         24.11450        46.76916         0.69085
C         25.38480        48.89387         0.88419
C         24.12697        48.19562         0.81887
C         25.46319        50.31023         1.20890
C         27.45798        23.00070        -0.30131
C         26.25670        22.36589        -0.59998
C         27.72875        24.35029        -0.64216
C         26.59027        25.09863        -1.09455
C         27.77815        27.18184        -0.52494
C         26.57454        26.52277        -0.94446
C         27.74912        28.54699        -0.20679
C         26.48887        29.27368        -0.01775
C         27.71074        31.42697         0.11837
C         26.47479        30.74261         0.13245
C         27.73546        32.88441         0.34423
C         26.42862        33.58332         0.59444
C         27.23140        35.38414        -0.80239
C         26.32659        34.99067         0.12196
C         27.56828        37.62988        -0.48371
C         26.51076        38.11830         0.23516
C         27.84204        40.24767         0.51555
C         26.56174        39.48813         0.78182
C         27.78579        41.73483         0.52053
C         26.58446        42.42925         0.78068
C         27.79275        44.56787         0.72098
C         26.56042        43.85702         0.78551
C         27.82322        46.02352         0.77258
C         26.57566        46.75338         0.72060
C         27.85489        48.92324         0.50598
C         26.57881        48.17788         0.69522
C         27.82729        50.45553         0.43691
C         26.60776        51.02141         1.11996
C         30.78360        19.96615        -0.94299
C         29.60158        20.51345        -0.47631
C         30.43853        22.83594        -0.62811
C         29.48223        21.90614        -0.24289
C         30.29587        24.28023        -0.51199
C         29.03847        24.98456        -0.52881
C         30.25313        27.13349        -0.54459
C         29.04110        26.42702        -0.54105
C         30.26450        28.60270        -0.39009
C         28.98396        29.32992        -0.12855
C         30.09834        31.55693        -0.68682
C         28.91293        30.79516        -0.24449
C         30.22784        33.01844        -0.26619
C         28.84951        33.61888        -0.32513
C         30.32103        36.07945        -0.95460
C         28.48912        34.71455        -1.02713
C         30.20205        37.41149        -0.57535
C         28.93740        38.19056        -0.46463
C         30.25340        40.27882        -0.27433
C         28.99391        39.52843        -0.09815
C         30.24883        41.74730         0.02623
C         28.99460        42.44724         0.41393
C         30.28831        44.54936         0.58481
C         28.99519        43.84395         0.57380
C         30.31813        46.01390         0.85504
C         29.02170        46.70494         0.94013
C         30.40204        48.84685         1.12647
C         29.12318        48.16521         0.78664
C         30.37743        50.31433         1.25338
C         29.12175        51.10926         0.95054
C         30.53304        53.12929         0.67238
C         29.35582        52.50908         0.50388
C         33.34507        18.73580        -1.41148
C         33.23398        20.16852        -1.26232
C         31.93961        20.75798        -1.12404
C         32.86554        22.93906        -0.30114
C         31.77863        22.28170        -1.12947
C         32.78899        24.41662        -0.20695
C         31.52753        25.04616        -0.43377
C         32.73125        27.21407        -0.31296
C         31.51137        26.46835        -0.46241
C         32.75278        28.64077        -0.70410
C         31.43840        29.34302        -0.91792
C         32.66858        31.57340        -0.95829
C         31.40609        30.83624        -0.99493
C         32.61576        33.04417        -1.33726
C         31.38493        33.81960        -0.87304
C         32.80424        35.81054        -0.36051
C         31.46350        35.20301        -0.79633
C         32.81845        37.34502        -0.29180
C         31.48827        38.09428        -0.20257
C         32.77390        40.23257        -0.22747
C         31.53182        39.55832        -0.26910
C         32.80845        41.64366         0.09975
C         31.54727        42.31942         0.48175
C         32.77137        44.55622         0.73384
C         31.52085        43.75730         0.86226
C         32.80467        45.90748         1.39859
C         31.48298        46.65904         1.58434
C         32.87228        48.83714         1.37638
C         31.57810        48.15522         1.29609
C         32.87145        50.30280         1.27809
C         31.65903        51.00986         1.31110
C         32.97260        53.15951         1.26075
C         31.64456        52.50623         1.51454
C         33.33199        54.34904         1.93880
C         35.79366        18.41770        -1.23463
C         34.45351        17.92426        -1.25812
C         35.69657        20.58502        -1.13900
C         34.39667        20.98217        -0.93950
C         35.37594        23.05641         0.15462
C         34.18719        22.25889        -0.20952
C         35.19009        24.46910         0.51754
C         33.93967        25.15644         0.09906
C         35.15682        27.39203         0.29431
C         33.92597        26.57980         0.03551
C         35.17210        28.87635        -0.05317
C         33.93679        29.48188        -0.57355
C         35.16753        31.54467        -1.14589
C         33.87844        30.86725        -0.84249
C         35.16237        33.02870        -1.45149
C         33.92498        33.80202        -1.18992
C         35.10474        35.95714        -1.63492
C         33.96002        35.15553        -1.06064
C         35.16778        37.44438        -1.22303
C         34.03688        38.11364        -0.72246
C         35.13758        40.40192        -0.95996
C         33.98664        39.54342        -0.58085
C         35.19021        41.76245        -0.37967
C         34.01964        42.35402         0.14510
C         35.29175        44.58257         0.62349
C         34.02907        43.84005         0.38766
C         35.31325        45.91210         0.92255
C         34.09581        46.65193         1.36868
C         35.37240        48.85581         1.49439
C         34.07395        48.14141         1.39956
C         35.38558        50.37499         1.31437
C         34.08841        51.00683         1.09527
C         35.33476        53.11218         0.31325
C         34.06610        52.40077         0.62685
C         35.26342        54.63467         0.37133
C         34.47910        55.03752         1.60961
C         38.07683        15.90022         0.09878
C         36.91857        16.53268        -0.16488
C         38.03047        18.76186        -0.10005
C         36.90100        17.93946        -0.52382
C         37.84856        20.21576         0.22868
C         36.93639        21.20277        -0.56234
C         37.78099        23.20736         0.59630
C         36.61680        22.46727         0.20952
C         37.77124        24.59309         0.64534
C         36.48776        25.30273         0.64927
C         37.67815        27.44332         0.24526
C         36.47698        26.73478         0.34804
C         37.68884        28.87691        -0.06978
C         36.46688        29.55270        -0.30694
C         37.65597        31.59345        -0.96225
C         36.44472        30.88193        -0.79440
C         37.63598        33.01891        -1.26493
C         36.44487        33.74200        -1.36555
C         37.58698        35.85834        -1.67875
C         36.41810        35.18886        -1.49653
C         37.60392        37.30436        -1.98806
C         36.37719        38.19563        -1.70154
C         37.68113        40.48856        -1.23715
C         36.43426        39.73347        -1.51895
C         37.70858        41.88548        -0.79630
C         36.38690        42.59164        -0.44699
C         37.76186        44.60481         0.15403
C         36.55163        43.76841         0.51007
C         37.76478        45.96160         0.36139
C         36.61036        46.62935         0.99857
C         37.86303        48.88506         0.79381
C         36.65785        48.11389         1.22302
C         37.86316        50.30947         0.82324
C         36.63858        51.05913         0.90927
C         37.83079        53.18444         0.54490
C         36.63552        52.44261         0.57836
C         37.85551        54.61419         0.36086
C         36.61603        55.31006         0.26729
C         37.76133        57.34334        -0.32746
C         36.57938        56.67276        -0.03014
C         40.39466        14.62365         1.33009
C         40.45318        15.97523         0.95471
C         39.38828        16.63551         0.07955
C         40.34517        18.86526         0.79968
C         39.19466        18.12582         0.33859
C         40.28547        20.22520         1.05051
C         38.98948        20.93543         0.94107
C         40.21051        23.24959         1.29958
C         38.96455        22.44742         1.04414
C         40.23652        24.68719         0.93340
C         38.98326        25.37559         0.70141
C         40.15633        27.60019         0.68782
C         38.93043        26.75169         0.44956
C         40.20143        28.89777        -0.11651
C         38.92158        29.58867        -0.25187
C         40.15344        31.68666        -0.79070
C         38.88697        30.93426        -0.68312
C         40.10719        33.04895        -1.34833
C         38.90227        33.69466        -1.44747
C         40.03999        35.83332        -1.00065
C         38.91701        35.15157        -1.81721
C         40.04567        37.29294        -1.38110
C         38.97465        37.83921        -1.98500
C         40.12911        40.39646        -0.76694
C         38.96932        39.98682        -1.45691
C         40.12516        41.68714        -0.18227
C         38.95820        42.45990        -0.27435
C         40.21760        44.55130        -0.00762
C         38.99621        43.88687        -0.07161
C         40.26797        45.99939        -0.16450
C         38.94123        46.76836         0.03554
C         40.25782        48.87727         0.16267
C         39.02648        48.19642         0.39238
C         40.25166        50.29749         0.27081
C         39.08611        51.00476         0.57854
C         40.36153        53.23186         0.48450
C         39.11339        52.48648         0.89871
C         40.39787        54.65470         0.42687
C         39.10123        55.33568         0.22684
C         41.06798        57.78491         0.10449
C         38.98641        56.67267        -0.22276
C         41.25951        59.12084         0.30905
C         42.72403        14.65547         1.97989
C         41.51312        13.98201         1.87202
C         42.81096        16.01870         1.62691
C         41.64165        16.69185         1.18113
C         42.77671        18.89930         1.47851
C         41.69324        18.13464         0.72264
C         42.83461        20.35120         1.31705
C         41.51020        20.99787         1.39015
C         42.76874        23.23339         1.26401
C         41.50301        22.50791         1.49269
C         42.69181        24.59669         0.97759
C         41.45857        25.34282         0.88877
C         42.72809        27.45428         0.15724
C         41.48140        26.82430         0.70526
C         42.58717        28.59120        -0.84993
C         41.39029        29.47075        -0.51927
C         42.73079        31.56225        -1.24761
C         41.46962        30.92301        -0.77501
C         42.71929        32.97541        -1.72756
C         41.37289        33.75032        -1.72802
C         42.32678        36.07078        -1.93518
C         41.33681        35.22095        -1.51482
C         42.54753        37.41794        -1.44612
C         41.27559        38.06255        -1.03947
C         42.65309        40.10558        -0.41926
C         41.29807        39.49107        -0.62239
C         42.70222        41.55068         0.00439
C         41.40752        42.29525         0.24025
C         42.74129        44.47768        -0.02740
C         41.45341        43.80347         0.24574
C         42.75751        45.95780         0.15513
C         41.51554        46.73840         0.05456
C         42.78156        48.83790        -0.14236
C         41.51292        48.13344         0.01270
C         42.76732        50.31790        -0.26333
C         41.48039        51.05824        -0.03942
C         42.79475        53.11937         0.47873
C         41.54287        52.49121         0.32193
C         42.81320        54.48375         0.84766
C         41.67513        55.28903         0.61939
C         43.20213        57.29298         1.35251
C         41.99852        56.75188         0.58087
C         43.18392        58.71695         1.74244
C         42.29363        59.58221         1.19413
C         45.32806        16.08836         1.68091
C         44.09146        16.71617         1.68335
C         45.30445        18.95237         1.83166
C         44.05902        18.17251         1.83403
C         45.27653        20.35418         1.67281
C         44.01891        21.06341         1.48979
C         45.25387        23.19378         1.35628
C         44.02340        22.51526         1.38711
C         45.23465        24.66571         1.20924
C         43.94750        25.36621         0.91647
C         45.24789        27.26652        -0.29377
C         43.95306        26.59459         0.05666
C         45.20436        28.73083        -0.53389
C         43.95557        29.34624        -1.14418
C         45.18676        31.53263        -1.00018
C         43.92587        30.86877        -1.03175
C         45.31891        32.93805        -1.49328
C         44.02553        33.70739        -1.65610
C         45.37258        35.89913        -1.82986
C         44.20630        34.98877        -2.08145
C         45.07606        37.24347        -1.06663
C         43.79063        38.03841        -1.33276
C         45.07349        40.14156        -0.93116
C         43.86543        39.43485        -0.93872
C         45.07603        41.57867        -0.72460
C         43.92355        42.29718        -0.35500
C         45.20838        44.44059        -0.46399
C         43.87346        43.75458        -0.31176
C         45.17784        45.95254        -0.70318
C         44.04432        46.71059        -0.08739
C         45.26238        48.87497        -0.55223
C         43.97388        48.16517        -0.30980
C         45.29883        50.35630        -0.31153
C         44.02973        51.05705        -0.03244
C         45.33581        53.10993         0.38118
C         44.03796        52.37723         0.32251
C         45.33732        54.50597         0.95455
C         44.03812        54.89985         1.65121
C         45.37480        56.87390         2.53975
C         43.99691        56.33791         2.24012
C         46.51781        16.82856         1.84643
C         47.77520        18.97885         2.08991
C         46.53670        18.22983         1.92461
C         47.75276        20.39345         1.89618
C         46.51610        21.08157         1.65248
C         47.76942        23.17721         1.36930
C         46.50662        22.49190         1.45326
C         47.80454        24.63803         1.09534
C         46.51288        25.38741         0.91842
C         47.72277        27.28488        -0.06612
C         46.52314        26.64906         0.15851
C         47.67874        28.72021        -0.43926
C         46.37671        29.44621        -0.44590
C         47.59958        31.65382        -0.47268
C         46.40227        30.88918        -0.66142
C         47.67346        33.07493        -0.49650
C         46.39698        33.74513        -0.80091
C         47.68148        35.95747        -0.85672
C         46.41814        35.22129        -0.97793
C         47.63409        37.36590        -1.08082
C         46.37239        38.05270        -1.16001
C         47.56931        40.17156        -1.42723
C         46.34736        39.45197        -1.18561
C         47.47146        41.61508        -1.72953
C         46.22294        42.30259        -1.27199
C         47.85901        44.75968        -1.56965
C         46.03828        43.64620        -1.44067
C         47.74683        45.93427        -0.87391
C         46.48371        46.70502        -0.85849
C         47.64915        48.65138         0.18691
C         46.52878        48.10184        -0.36483
C         47.65763        50.08615         0.59569
C         46.54369        50.96678         0.19783
C         47.82599        52.97860         0.84171
C         46.58775        52.31818         0.47938
C         47.83470        54.38277         1.15815
C         46.61289        55.06673         1.42946
C         46.55007        56.28254         2.17771
C         50.14052        19.11970         2.70422
C         48.98423        18.36656         2.46020
C         50.16431        20.49551         2.47803
C         48.97873        21.12301         1.98392
C         50.26642        23.23567         1.54001
C         48.96685        22.50619         1.59899
C         50.29403        24.62877         0.97033
C         49.02461        25.28511         0.58461
C         50.25828        27.37613         0.15457
C         48.98841        26.60789         0.18868
C         50.22737        28.86580         0.06586
C         48.91917        29.53059        -0.22130
C         49.92975        31.74330         0.60679
C         48.75283        30.96627         0.12592
C         50.11657        33.15148         0.10623
C         48.83586        33.84397        -0.24838
C         50.08718        36.02942        -0.49370
C         48.86659        35.27344        -0.51510
C         50.09390        37.39422        -0.88168
C         48.85935        38.09057        -1.13442
C         50.06969        40.21914        -1.57914
C         48.82145        39.50051        -1.42027
C         50.08743        41.62355        -1.67703
C         48.84114        42.40890        -1.83469
C         50.19033        44.42541        -1.18064
C         48.97178        43.85290        -1.51332
C         50.20846        45.72556        -0.47737
C         48.91026        46.42639        -0.12695
C         50.19133        48.49190         0.79336
C         48.88243        47.83937         0.42732
C         50.24142        49.98580         1.05955
C         48.96138        50.77227         0.96214
C         50.29848        52.91856         0.93135
C         49.04228        52.24727         0.87465
C         50.28195        54.32994         1.10319
C         49.10200        55.02152         1.28877
C         52.67098        20.74365         3.20451
C         51.34192        21.39776         2.88952
C         52.75636        22.77109         1.38193
C         51.49651        22.43873         1.81348
C         52.82028        24.81641         0.71231
C         51.54152        25.38386         0.70307
C         52.64525        27.53555         1.04427
C         51.48708        26.77088         0.69605
C         52.34302        28.86599         1.41203
C         51.22518        29.58913         0.88536
C         52.93218        32.15806         1.38442
C         51.05230        30.93531         1.12687
C         52.74866        33.36962         0.75345
C         51.43314        33.91573         0.22298
C         52.64006        36.17883        -0.24016
C         51.33765        35.41358         0.01047
C         52.56641        37.41901        -1.01969
C         51.34734        38.08517        -1.15235
C         52.52527        40.13783        -1.86195
C         51.32966        39.48320        -1.55965
C         52.55272        41.59806        -2.00522
C         51.33152        42.33334        -1.65986
C         52.67523        44.40149        -1.28636
C         51.41711        43.71264        -1.40448
C         52.69222        45.91929        -1.16695
C         51.43380        46.57214        -0.56192
C         52.77612        48.49764         0.50156
C         51.44478        47.88889         0.16366
C         52.83110        49.94570         0.88844
C         51.54564        50.72244         1.07214
C         52.78252        52.79119         0.61559
C         51.55997        52.19230         0.84529
C         53.87902        21.30895         2.90726
C         55.15810        23.27839         1.79802
C         53.98988        22.45660         2.03235
C         55.15849        24.65434         1.36822
C         54.00277        25.47297         1.10814
C         55.15230        27.68247         1.35731
C         53.94605        26.91962         1.25194
C         55.26913        29.11717         1.40047
C         54.19717        30.00245         1.71182
C         55.31081        31.93770         0.73832
C         54.13888        31.35861         1.33748
C         55.26400        33.26829         0.26020
C         54.01455        34.07043         0.39410
C         55.12146        35.97974        -0.91632
C         53.96628        35.47002        -0.13706
C         55.08528        37.22235        -1.49719
C         53.78694        37.93405        -1.66186
C         55.08545        40.13259        -2.38912
C         53.76875        39.39206        -2.11234
C         55.14872        41.57800        -1.88753
C         53.88827        42.35807        -1.98680
C         55.15565        44.46807        -1.42930
C         53.88353        43.75535        -1.51151
C         55.20754        45.79197        -1.09717
C         53.98070        46.42957        -0.55667
C         55.26558        48.60005        -0.06045
C         54.03001        47.79460         0.04580
C         55.30886        49.92791         0.36878
C         54.08328        50.68980         0.62804
C         54.01372        52.05986         0.52011
C         57.64260        23.33236         1.86489
C         56.44519        22.70080         2.09506
C         57.71879        24.68246         1.40872
C         56.43189        25.37378         1.18359
C         57.71903        27.62140         1.27624
C         56.40310        26.91143         1.11829
C         57.70082        29.05759         0.95129
C         56.52177        29.77504         1.04048
C         57.73472        31.90025         0.47195
C         56.52479        31.20454         0.73329
C         57.69481        33.22405         0.00673
C         56.44374        33.87861        -0.18311
C         57.60989        35.81210        -1.42766
C         56.35015        35.15381        -0.94159
C         57.55778        37.22547        -1.80829
C         56.31665        37.91230        -1.89625
C         57.57753        40.02908        -1.83085
C         56.30462        39.31394        -2.04534
C         57.59965        41.49815        -1.54141
C         56.31881        42.23594        -1.66607
C         57.61768        44.27863        -0.93677
C         56.43870        43.75033        -1.78886
C         57.72129        45.79028        -0.94189
C         56.47679        46.58571        -1.29601
C         57.79941        48.67189        -0.37665
C         56.45605        48.00907        -0.69707
C         57.76012        49.86007         0.48275
C         56.58933        50.53023         0.66292
C         60.15176        24.62476         0.91143
C         58.92932        25.33225         1.11727
C         60.21706        27.47266         0.60729
C         58.99094        26.81573         1.11338
C         60.21688        28.94336         0.36767
C         58.95565        29.73369         0.54714
C         60.32352        31.89673         0.51293
C         59.01806        31.20794         0.92276
C         60.28684        33.30321        -0.03697
C         58.95759        33.99710        -0.18639
C         60.16515        35.86079        -1.53311
C         58.92518        35.29340        -0.93684
C         60.11539        37.15385        -2.06463
C         58.81538        37.83937        -2.22218
C         60.10949        40.08968        -2.14510
C         58.83673        39.38762        -2.27918
C         60.11172        41.48928        -1.83621
C         58.89521        42.22172        -1.61897
C         60.15453        44.28016        -1.19138
C         58.91688        43.58616        -1.30725
C         60.18545        45.66880        -0.81102
C         58.95077        46.42722        -0.75118
C         60.26775        48.44862        -0.28034
C         59.03654        47.85174        -0.49050
C         61.29963        25.28250         0.53948
C         61.31847        26.69886         0.34616
C         61.49484        29.69699         0.40186
C         61.53043        31.04029         0.38063
C         61.42515        33.87477        -0.78991
C         61.36750        35.07564        -1.42914
C         61.28256        37.92933        -2.36751
C         61.28037        39.31386        -2.37235
C         61.33380        42.21722        -1.76150
C         61.35265        43.55803        -1.45807
C         61.41122        46.33219        -0.56648
C         61.45789        47.69062        -0.31022
O         37.83976        20.37954         1.67349
O         39.12846        39.11003        -2.52363
O         36.95089        47.17202         2.32777
O         39.29327        22.94079         2.39318
O         50.89175        50.33373         2.32442
O         34.51383        52.58326        -0.81537
O         33.23848        44.56541        -0.64681
O         33.59579        45.98775         2.62071
O         28.35647        22.28458         0.49546
O         59.38685        29.36986        -0.80133
O         51.83573        31.57627         2.05878
O         36.99679        42.80074        -1.73216
O         60.60299        33.04473         1.38425
O         40.98197        31.66051         0.42948
O         43.24604        35.60862        -2.88459
O         41.94775        33.21160        -2.95830
O         54.31796        35.24319         1.27309
O         37.67278        21.66037        -1.67633
O         52.93662        48.88521         1.89279
O         23.65684        34.24961         1.78526
O         57.62897        40.52323        -0.42712
O         43.33248        57.00177        -0.05232
O         29.34071        35.51444        -1.78119
O         51.95029        36.22182         1.04992
O         50.68573        28.09240        -1.07700
O         34.98626        28.41124         1.33818
O         35.49432        49.72873         2.65355
O         44.51050        26.41843        -1.26547
O         31.47042        42.76044         1.90850
O         48.48151        29.20116        -1.57138
O         47.26600        25.47565         2.18153
O         51.08010        33.18896        -1.01912
O         46.79550        44.33614        -2.37635
O         53.09619        29.46276         2.41275
O         25.53806        28.61062         0.91369
O         27.21393        36.63527        -1.41431
O         41.97917        50.80758        -1.40600
O         23.11048        37.66537         1.77035
O         49.56235        45.53354         0.82691
O         36.75245        37.78122        -3.07685
O         43.67868        46.31569         1.27226
O         48.83777        31.40139         1.55023
O         57.09937        48.93126        -1.64638
O         51.19088        47.83867        -1.28529
O         43.02989        18.52891         2.85654
O         52.89762        23.53202         0.20406
O         35.65793        24.91681         1.81412
O         54.12105        46.55148         0.88635
O         42.00037        18.13416        -0.66258
O         48.04016        42.03281        -2.99666
O         41.15874        38.41588         0.40334
O         33.20208        22.20760         0.90857
O         29.40895        50.81284         2.34397
O         58.69019        38.59614        -3.47883
O         48.02407        50.31943         1.99828
O         50.24731        24.40324         2.47213
O         58.95620        35.28121         0.53958
O         35.12286        32.04787        -2.54800
O         42.88701        40.49176         0.99108
O         41.46341        21.70125         2.70025
O         27.49884        39.72788         1.86982
O         32.25453        37.70878         1.02044
O         30.47629        31.28660        -2.06007
O         44.53645        25.44904         2.25288
O         45.91423        34.61400         0.25945
O         45.56701        46.48841        -1.98521
O         35.97933        19.56403        -2.03498
O         40.05117        57.39967        -0.75904
O         42.41244        27.61276         1.56298
O         49.41832        47.81234         1.79894
O         39.48014        46.49901        -1.29347
O         23.83222        29.46316        -2.33418
O         58.52540        27.31812         2.45754
O         45.33344        49.80054        -1.68503
O         25.54793        36.56108         1.84843
O         30.55144        45.50953        -0.50099
O         32.09366        28.75935        -2.05824
O         56.39873        26.11791        -0.10351
O         56.85492        34.93374        -2.32848
O         44.29346        29.16111        -2.50619
O         30.21674        41.31510        -1.36713
O         24.56670        42.08865         2.19072
O         41.40425        43.01844         1.50200
O         29.92588        28.97059         0.99515
O         28.66934        48.45972        -0.62441
O         53.17341        42.12212        -3.23933
O         27.35378        33.30987         1.69732
O         35.47932        40.37064        -2.40044
O         45.32258        54.29474        -0.48649
O         53.57413        38.30656        -3.08042
O         56.56862        46.73403        -2.74429
H         57.04820        47.58154        -2.91150
O         30.63036        32.93548         1.12985
H         30.67904        33.83918         1.50786
O         52.77998        46.38162        -2.54150
H         51.94846        46.15440        -3.00701
O         55.17434        40.27689        -3.84109
H         54.74637        39.47990        -4.23195
O         24.86320        25.44311        -3.58502
H         24.24428        26.04087        -4.05603
O         36.77953        43.16259         1.81466
H         36.88140        43.87841         2.47796
O         45.88164        44.27570         0.82584
H         45.28215        44.63563         1.51873
O         31.98761        22.73611        -2.49523
H         31.32862        22.29673        -3.07171
O         56.78433        43.98930        -3.16873
H         55.98543        43.85911        -3.72127
O         39.94444        28.07823         2.05112
H         40.82606        28.34695         2.39988
O         34.79293        35.97757        -3.06406
H         35.43504        36.60030        -3.49062
O         39.80492        35.64630         0.39613
H         40.36647        36.28229         0.89037
O         44.89462        36.89385         0.32709
H         44.73305        37.71392         0.83991
O         39.92368        16.55365        -1.27489
H         40.75779        17.12207        -1.27655
O         32.45617        33.01422        -2.79796
H         33.26579        32.58091        -3.16226
O         31.12572        46.56400         2.98385
H         31.96820        46.57462         3.49754
O         31.28182        52.77528         2.89689
H         30.48996        52.21191         3.08470
O         39.18706        52.53621         2.38398
H         38.40496        52.05368         2.73047
O         58.98577        31.22511         2.37026
H         59.32739        32.10460         2.65255
O         45.95557        36.23259        -3.10467
H         45.23810        36.23231        -3.77421
O         32.94534        35.32930         1.01397
H         32.62500        36.05027         1.60914
O         57.28946        43.89580         0.43299
H         58.05624        44.10256         1.00725
O         43.26848        56.30389         3.49571
H         43.86939        55.94767         4.18374
O         45.82243        32.74066        -2.85808
H         45.28643        32.03901        -3.28923
O         27.70461        50.81963        -0.96029
H         28.11742        50.09408        -1.48432
O         50.93120        22.04866         4.13265
H         50.45488        22.87932         3.90975
O         39.30924        35.30068        -3.20606
H         38.67361        34.80587        -3.76423
O         34.47217        55.11502        -0.74524
H         34.15415        54.30322        -1.21707
O         42.21241        27.92856        -2.07460
H         42.95172        28.15814        -2.71706
O         44.02325        53.99678         2.80010
H         43.16984        54.13107         3.26767
H         23.02952        23.49332        -2.73451
H         20.89028        24.65330        -2.46766
H         20.79089        27.07314        -1.95775
H         20.64474        28.99848        -1.44472
H         20.63169        31.32264        -0.78046
H         20.69190        33.27460        -0.78717
H         20.67182        35.68026        -0.50008
H         20.69540        37.73035        -0.51317
H         20.77630        40.12748        -0.35453
H         20.72874        42.01564        -0.15616
H         20.75339        44.42454        -0.04085
H         20.70821        46.31783         0.39749
H         22.88529        49.98948         0.89265
H         20.75002        48.77351         0.63172
H         24.32434        22.54407        -1.54910
H         24.56756        50.79590         1.62260
H         26.10641        21.32108        -0.30064
H         26.63016        52.07691         1.42772
H         30.82788        18.87358        -1.03585
H         28.76409        19.86122        -0.19789
H         30.67179        54.16099         0.31768
H         28.54700        52.99444        -0.06248
H         32.39897        18.18533        -1.50572
H         32.65009        54.74138         2.70837
H         34.27298        16.85020        -1.09550
H         34.72874        55.97427         2.13007
H         38.06385        14.81231         0.24645
H         35.97800        15.96586        -0.22402
H         37.75117        58.38455        -0.67362
H         35.61077        57.18233        -0.11334
H         39.47679        14.03653         1.19525
H         40.56824        59.84279        -0.14333
H         43.61083        14.12967         2.36023
H         41.44349        12.92653         2.16921
H         43.89468        59.06348         2.50459
H         42.31991        60.64747         1.46251
H         45.39664        14.99642         1.57868
H         45.41735        57.78663         3.15312
H         47.46553        16.27368         1.88386
H         47.49012        56.74697         2.51063
H         51.03840        18.61050         3.08218
H         49.01972        17.28239         2.63414
H         51.23260        54.87599         1.17240
H         49.14428        56.10074         1.48955
H         52.65263        19.88012         3.88597
H         52.83692        53.87739         0.45759
H         54.79072        20.86489         3.33491
H         54.92594        52.63211         0.29867
H         58.57412        22.78817         2.07439
H         56.46911        21.66819         2.46979
H         58.68798        50.23886         0.93322
H         56.59010        51.47669         1.22213
H         60.15824        23.52863         0.98837
H         60.33038        49.52770        -0.08445
H         62.21656        24.71180         0.33941
H         62.24146        27.15611        -0.03690
H         62.43918        29.13393         0.39970
H         62.50205        31.55518         0.39354
H         62.38398        33.33970        -0.74686
H         62.27938        35.45526        -1.91215
H         62.25060        37.41549        -2.44982
H         62.24980        39.82165        -2.47260
H         62.28630        41.70291        -1.94427
H         62.32301        44.06939        -1.41753
H         62.35316        45.76893        -0.58113
H         62.42144        48.18604        -0.13160
