         234
 CSIRO Nanostructure Databank - Neutral Graphene Oxide Data Set
C          1.64719         2.14785         1.53975
C          1.54449         3.51985         1.22524
C          2.82572         1.46815         1.32562
C          2.61510         4.22734         0.67664
C          1.36759         6.40231         0.74410
C          1.29645         7.76427         0.51207
C          2.52319         5.66419         0.40875
C          2.37635         8.47148        -0.06373
C          1.19417        10.66159         0.38405
C          1.25699        11.93270         0.83175
C          2.37697         9.93091        -0.07519
C          2.57120        12.61469         0.90135
C          1.57087        14.85478         1.74506
C          1.65538        16.18484         1.96473
C          2.75118        14.02037         1.40935
C          2.95868        16.84283         2.16271
C          3.11108        18.31392         2.13268
C          3.94950         2.14180         0.76075
C          3.84449         3.53232         0.41168
C          5.15232         1.45728         0.52765
C          4.94475         4.18313        -0.20519
C          3.59895         6.34889        -0.20447
C          3.52771         7.73897        -0.45423
C          4.75770         5.56739        -0.70022
C          4.67158         8.44815        -1.07174
C          3.52109        10.63815        -0.38646
C          3.55363        12.10293        -0.11799
C          4.67617         9.98759        -1.03598
C          4.73686        12.92511        -0.53239
C          3.98970        14.75036         1.03372
C          4.20948        16.03220         1.69648
C          4.94238        14.25673         0.13239
C          5.38482        16.82345         1.36732
C          4.31466        18.91962         2.08474
C          5.61329        18.12423         2.11442
C          6.27256         2.11935        -0.01271
C          6.17446         3.50703        -0.38742
C          7.49165         1.42690        -0.20091
C          7.35031         4.16133        -0.90673
C          5.97546         6.31644        -1.24557
C          5.96668         7.77372        -1.19073
C          7.27138         5.57125        -1.37734
C          7.18527         8.56603        -1.37905
C          5.98917        10.70474        -1.01560
C          5.88627        12.19977        -1.30468
C          7.16533        10.02682        -1.09527
C          7.22582        12.94464        -1.24010
C          6.07784        15.04603        -0.19071
C          6.24544        16.34191         0.41112
C          7.23337        14.43046        -0.90729
C          7.49827        17.12097         0.06518
C          6.82871        18.90653         1.66200
C          7.80382        18.39432         0.85901
C          8.63879         2.08977        -0.65718
C          8.56569         3.49435        -0.98107
C          9.87238         1.39469        -0.77399
C          9.81455         4.16956        -1.53241
C          8.55411         6.35107        -1.54106
C          8.52079         7.85443        -1.51814
C          9.83492         5.66163        -1.28322
C          9.78469         8.55708        -1.16572
C          8.48390        10.71304        -0.79523
C          8.51502        12.18830        -1.13291
C          9.77368         9.96738        -1.12723
C          9.72247        12.82788        -1.11194
C          8.55724        14.95324        -0.51042
C          8.57350        16.07553         0.24103
C          9.76555        14.30491        -1.06616
C         10.43178        17.17543         0.08582
C          9.02010        19.14748         0.52803
C         10.22439        18.61263         0.05303
C         11.08786         2.09141        -0.93542
C         11.08526         3.50183        -1.08968
C         12.33888         1.39925        -0.88987
C         12.28585         4.23541        -0.97761
C         11.00713         6.36868        -1.08557
C         10.99442         7.83007        -1.03854
C         12.27994         5.67310        -0.96160
C         12.21775         8.53525        -0.87120
C         11.00854        10.65753        -1.13531
C         11.01212        12.12626        -1.49827
C         12.21733         9.94879        -0.99787
C         12.27501        12.88297        -1.11866
C         11.06708        15.04691        -1.15451
C         11.21739        16.48625        -0.77981
C         12.32604        14.25990        -1.15295
C         12.30068        17.21464        -1.44306
C         11.32120        19.33563        -0.53261
C         12.39146        18.67635        -1.16600
C         13.52860         2.08811        -0.86386
C         13.51856         3.52670        -0.79964
C         14.81900         1.31307        -1.00239
C         14.71410         4.26015        -0.58716
C         13.49257         6.38628        -0.79623
C         13.47651         7.83384        -0.70062
C         14.72389         5.66359        -0.64697
C         14.64014         8.55893        -0.38439
C         13.52355        10.65172        -1.00344
C         13.55670        12.17202        -1.07915
C         14.68669         9.98368        -0.40276
C         14.73734        12.88229        -0.56141
C         13.57869        14.97488        -1.13163
C         13.56116        16.37093        -1.65123
C         14.72273        14.31161        -0.61935
C         14.80139        17.16285        -1.98718
C         13.63853        19.32412        -1.37421
C         14.82910        18.60491        -1.59400
C         15.97093         1.98387        -0.28510
C         15.91038         3.51510        -0.13410
C         17.29366         1.36815        -0.30027
C         17.16819         4.21042         0.08468
C         16.00970         6.40336        -0.57165
C         15.95570         7.89389        -0.32912
C         17.32338         5.66985        -0.28093
C         17.07165         8.60424         0.33723
C         15.84678        10.71152        -0.04061
C         15.87583        12.15055        -0.12481
C         17.00772        10.01746         0.50464
C         17.09056        12.84659         0.21470
C         15.95332        15.01752        -0.32214
C         15.98490        16.38954        -0.05448
C         17.17207        14.25033        -0.08515
C         17.24479        17.21200        -0.13436
C         16.10563        19.18764        -1.42804
C         17.27435        18.45969        -1.07091
C         18.38323         2.05788         0.19293
C         18.28457         3.48270         0.42827
C         19.70071         1.45083         0.27980
C         19.43337         4.17861         1.04391
C         18.22288         6.42992         0.67270
C         18.17203         7.80700         0.80479
C         19.34688         5.67017         1.26878
C         19.14437         8.45177         1.72020
C         18.07641        10.76937         1.11936
C         18.18102        12.18742         0.87982
C         19.03463         9.96181         1.93623
C         19.35346        13.01735         1.18718
C         18.39179        14.92803        -0.00844
C         18.43041        16.32289        -0.57498
C         19.53520        14.30073         0.56032
C         19.68664        17.10084        -0.28006
C         18.52909        19.01221        -1.34905
C         19.76801        18.39676        -0.98753
C         20.81592         2.15253         0.63709
C         20.75722         3.53942         1.02505
C         21.86805         4.28685         1.37111
C         20.59411         6.38591         1.59429
C         20.44752         7.77772         1.97497
C         21.77977         5.67540         1.67480
C         21.44189         8.43798         2.66111
C         20.18003        10.50946         2.69049
C         20.34366        12.71533         2.15493
C         21.27374         9.78949         3.07693
C         21.57290        13.36327         2.24093
C         20.79048        14.99322         0.64972
C         20.91857        16.40206         0.17924
C         21.82319        14.47266         1.42583
C         22.19118        17.02501        -0.20255
C         21.02021        18.95546        -1.18716
C         22.20833        18.24654        -0.81984
O          7.87315         8.37809        -2.70860
O         16.23406         7.33172        -1.69214
O          3.51067        12.93029        -1.33557
O          4.94787         5.73276        -2.14076
O         20.06541        11.80477         3.17944
O         15.69937        16.68038        -2.67680
O          7.19003        13.98227        -2.28556
O         10.23056        14.88551        -2.35904
O         13.83484        11.33322        -2.26064
O          3.04291        12.83499         2.26878
O          9.67842        16.43190         1.00320
O          4.34116         9.27547        -2.25403
O         12.62750        16.66562        -2.74992
O         20.07114        17.24021         1.13037
O          7.48414        17.46508        -1.28778
O          7.85399         5.78335        -2.70903
O         18.40309         8.98393         2.86594
O         18.99604         4.72386         2.35063
O         15.58045         2.58987         0.97566
O          3.78997        16.11914         3.11458
O          8.48792        10.69649         0.69325
H          9.32739        11.10531         0.99624
O          5.87543        17.80312         3.51364
H          5.15200        17.19503         3.80546
O          5.48694        12.17007        -2.68767
H          5.78652        13.01308        -3.10085
O          9.78640         3.97464        -2.98756
H          9.02825         4.51551        -3.32538
O         15.13741         1.17378        -2.40045
H         15.01765         2.04110        -2.83909
O         18.38036        16.20298        -2.01754
H         17.44171        16.17234        -2.32437
O         14.92439        17.00491         0.52977
H         15.23871        17.86158         0.89452
O         10.98356        12.16539        -2.95790
H         10.82599        13.10667        -3.21425
O         17.39582        17.75059         1.20167
H         18.35594        17.79590         1.43194
O         18.09204         5.63822        -1.52771
H         17.79296         6.42234        -2.05207
H          0.77827         1.62955         1.96803
H          0.59018         4.02338         1.42710
H          2.91507         0.40272         1.58058
H          0.50617         5.90553         1.20830
H          0.38657         8.29715         0.81545
H          0.22022        10.15420         0.36079
H          0.35447        12.43352         1.20951
H          0.57913        14.38144         1.70289
H          0.74258        16.79094         2.06876
H          2.18715        18.91267         2.10214
H          5.22925         0.39078         0.78513
H          4.37039        20.01867         2.07195
H          7.54693         0.35838         0.05364
H          6.99881        19.85970         2.18964
H          9.89128         0.30834        -0.60364
H          8.93978        20.24741         0.57439
H         12.33841         0.29926        -0.89553
H         11.35739        20.43245        -0.44142
H         14.68117         0.27639        -0.60245
H         13.71588        20.39504        -1.12733
H         17.40832         0.35990        -0.72366
H         16.20454        20.27961        -1.55241
H         19.78867         0.38585         0.01887
H         18.56527        19.95693        -1.91432
H         21.79478         1.65035         0.65662
H         22.85750         3.80721         1.39271
H         22.70882         6.19586         1.94766
H         22.37705         7.92321         2.91681
H         22.03890        10.26922         3.69977
H         22.30023        13.04433         2.99769
H         22.78012        15.00583         1.50579
H         23.13255        16.48535        -0.02515
H         21.11488        19.93534        -1.67656
H         23.17665        18.69906        -1.07865
