         344
 CSIRO Nanostructure Databank - Neutral Graphene Oxide Data Set
C          1.14292         3.47113         0.48184
C         -0.09074         4.18253         0.40477
C          1.15596         6.23211        -0.21354
C         -0.13077         5.52095         0.13840
C          1.13003         7.75469        -0.19010
C         -0.06677         8.48107        -0.31544
C          1.14178        10.59888        -0.45048
C         -0.06535         9.86629        -0.43071
C          1.17079        12.04035        -0.59972
C         -0.05143        12.80768        -0.68807
C          1.16189        14.93737        -0.66562
C         -0.04886        14.18001        -0.67817
C          1.18734        16.33820        -0.54874
C         -0.02362        17.11183        -0.55915
C          1.21293        19.19859        -0.24307
C         -0.00972        18.47150        -0.45049
C          1.22750        20.60398        -0.07100
C          0.01691        21.40246        -0.22898
C          1.39211        23.45733        -0.32671
C          0.06237        22.74249        -0.35952
C          1.30519        24.96347        -0.10430
C          0.15658        25.70665        -0.46217
C          1.34560        27.80768        -0.15578
C          0.16100        27.09433        -0.44179
C          1.39526        29.24167        -0.19806
C          3.58590         3.45639         0.55398
C          2.37342         4.14772         0.50942
C          3.60220         6.35849         0.22899
C          2.31718         5.67202         0.61592
C          3.61547         7.73529        -0.06141
C          2.35503         8.45526        -0.20859
C          3.61106        10.59262        -0.33326
C          2.36972         9.87894        -0.33470
C          3.62362        12.00661        -0.45869
C          2.39221        12.72045        -0.61546
C          3.68553        14.89979        -0.51656
C          2.43553        14.19033        -0.97113
C          3.66509        16.33147        -0.36003
C          2.44110        17.04723        -0.39348
C          3.65783        19.16845         0.06346
C          2.44076        18.46885        -0.19595
C          3.63900        20.56239         0.36353
C          2.43581        21.26655         0.27667
C          3.64194        23.44470         0.87363
C          2.30296        22.72206         0.69070
C          3.67871        24.93700         0.71008
C          2.46787        25.65935         0.25617
C          3.76484        27.77184         0.35567
C          2.52508        27.07713         0.16633
C          3.78836        29.19618         0.29548
C          2.56563        29.90858         0.03409
C          6.15628         3.43559         0.61917
C          4.85641         4.14028         0.71968
C          6.06812         6.30821        -0.12844
C          4.84952         5.65920         0.49816
C          6.10554         7.75584         0.38961
C          4.83821         8.46851        -0.04211
C          6.07996        10.59927        -0.14756
C          4.84850         9.87111        -0.18542
C          6.05983        12.00598        -0.17619
C          4.86105        12.72436        -0.36531
C          6.13536        14.88023        -0.27106
C          4.86606        14.17749        -0.38563
C          6.13647        16.34312        -0.24785
C          4.89344        17.04508        -0.17077
C          6.14434        19.15424         0.13504
C          4.90301        18.45030         0.02743
C          6.17087        20.54948         0.44236
C          4.89696        21.21581         0.91107
C          6.11317        23.41005         0.76249
C          4.92588        22.72214         0.74573
C          6.16608        24.86611         0.76668
C          4.98118        25.61195         0.63064
C          6.18925        27.74880         0.75139
C          4.98726        27.05192         0.56713
C          6.21037        29.17819         0.69980
C          5.00395        29.88076         0.46870
C          8.63304         3.46067         0.57770
C          7.34034         4.11023         0.49397
C          8.63306         6.31565         0.20322
C          7.36546         5.54439         0.08839
C          8.61063         7.80335         0.13013
C          7.38004         8.48642         0.05387
C          8.57586        10.57491        -0.30148
C          7.35863         9.88884        -0.10317
C          8.51786        12.04703        -0.63158
C          7.35674        12.71434         0.11448
C          8.61001        14.92851         0.07671
C          7.31389        14.19159        -0.13831
C          8.59369        16.29412        -0.59791
C          7.33933        17.05019        -0.25876
C          8.62145        19.16039         0.01379
C          7.37532        18.46066        -0.06149
C          8.62265        20.55964         0.26419
C          7.37503        21.23899         0.48404
C          8.65939        23.41220         0.69532
C          7.39757        22.64969         1.02654
C          8.65210        24.83872         0.79383
C          7.42579        25.53954         0.86775
C          8.68804        27.73034         0.88041
C          7.41648        27.00738         1.21707
C          8.67789        29.16005         0.84062
C          7.44433        29.86552         0.82943
C         11.09077         3.48870         0.64379
C          9.82150         4.15645         0.64316
C         11.11023         6.33668         0.40879
C          9.83499         5.65703         0.84792
C         11.12979         7.84061         0.44819
C          9.82680         8.49569         0.03454
C         11.05789        10.58698        -0.47034
C          9.81339         9.88950        -0.24471
C         11.05791        12.01308        -0.57754
C          9.82649        12.76490        -0.41373
C         11.06174        14.89206        -0.41623
C          9.84809        14.15041        -0.32403
C         11.07944        16.30242        -0.38248
C          9.86636        17.04884        -0.32970
C         11.12697        19.12615        -0.06345
C          9.87443        18.43538        -0.12678
C         11.16945        20.54400         0.45712
C          9.85154        21.28619         0.37123
C         11.18545        23.39343         0.70979
C          9.85573        22.68843         0.52027
C         11.12865        24.89373         0.52941
C          9.90181        25.57510         0.72179
C         11.12398        27.73418         0.60925
C          9.89229        27.01494         0.73172
C         11.12745        29.16978         0.66401
C          9.90195        29.86125         0.76131
C         13.54344         3.48601         0.57345
C         12.28185         4.17102         0.47228
C         13.51208         6.29624        -0.07826
C         12.28725         5.62480         0.26172
C         13.50507         7.67903        -0.38457
C         12.33486         8.44488        -0.22306
C         13.48708        10.53613        -0.82770
C         12.30115         9.85364        -0.50987
C         13.46143        11.96469        -1.08034
C         12.24711        12.71786        -0.79584
C         13.56770        14.89797        -0.83644
C         12.35636        14.14543        -0.34642
C         13.52144        16.32681        -0.77888
C         12.33043        17.01384        -0.48824
C         13.55365        19.17852        -0.57088
C         12.31965        18.44960        -0.36340
C         13.46601        20.63857        -0.66569
C         12.31027        21.34980        -0.12605
C         13.57454        23.45155        -0.16465
C         12.33622        22.71754        -0.00888
C         13.54012        24.95247        -0.24777
C         12.31731        25.61023         0.33232
C         13.58180        27.74867         0.34678
C         12.34005        27.03195         0.41639
C         13.57678        29.16789         0.47605
C         12.36030        29.86195         0.60308
C         15.99555         3.46338         0.56388
C         14.73481         4.11441         0.31371
C         16.04441         6.21858        -0.22574
C         14.72724         5.45045        -0.40479
C         16.06941         7.68560        -0.48726
C         14.76685         8.34286        -0.84169
C         16.02360        10.61260        -0.65532
C         14.78010         9.84442        -0.98095
C         16.00074        11.98583        -0.68482
C         14.80209        12.72967        -1.12081
C         16.04157        14.88844        -0.99584
C         14.76574        14.20789        -0.98222
C         16.04917        16.35259        -1.25607
C         14.73395        17.09277        -1.11026
C         16.02900        19.24951        -0.88531
C         14.76106        18.54536        -0.85020
C         16.06464        20.63731        -0.73828
C         14.81226        21.40914        -0.75332
C         16.06993        23.43741         0.11906
C         14.77884        22.80381        -0.33283
C         16.05788        24.95187         0.00566
C         14.84448        25.63936         0.08753
C         16.06208        27.77966         0.27185
C         14.83321        27.05723         0.22508
C         16.03149        29.21058         0.41750
C         14.82602        29.87003         0.48874
C         18.42559         3.54623         0.97692
C         17.16057         4.17661         0.70509
C         18.38361         6.41280         0.65491
C         17.06524         5.68496         0.75986
C         18.40248         7.81559         0.41231
C         17.21260         8.51595        -0.01308
C         18.42344        10.65939         0.08463
C         17.21093         9.90153        -0.17163
C         18.44035        12.07898        -0.04552
C         17.12007        12.81296        -0.09190
C         18.42214        15.01473        -0.35936
C         17.18847        14.21241        -0.66268
C         18.53269        16.27935        -1.24244
C         17.29194        17.12450        -1.04279
C         18.55700        19.21981        -0.85447
C         17.28392        18.49426        -0.92991
C         18.57251        20.63908        -0.77588
C         17.30949        21.37641        -0.64651
C         18.60524        23.45319        -0.16392
C         17.29916        22.74207        -0.42418
C         18.52960        24.96286        -0.33520
C         17.27754        25.67760        -0.00382
C         18.56777        27.80273         0.23143
C         17.29829        27.08132         0.12267
C         18.56759        29.19029         0.50447
C         17.31124        30.01171         0.42255
C         19.56348         4.28221         1.12369
C         20.78984         6.44150         1.03007
C         19.57152         5.72160         0.94630
C         20.80884         7.81158         0.86052
C         19.62733         8.53134         0.54854
C         20.83395        10.71449         0.48435
C         19.63620         9.96851         0.37153
C         20.84267        12.08131         0.28110
C         19.64715        12.78765         0.03315
C         20.70856        15.11045         0.40710
C         19.76624        14.23764        -0.40281
C         20.69610        16.42833         0.15885
C         19.90709        16.99957        -1.02187
C         20.98785        19.22611        -0.92607
C         19.78481        18.51618        -0.90693
C         21.00051        20.62043        -0.89532
C         19.80587        21.33793        -0.79894
C         21.05150        23.55601        -0.47983
C         19.79136        22.85052        -0.95391
C         21.05817        24.85992        -0.15671
C         19.83761        25.70219        -0.26014
C         21.00020        27.80526         0.47300
C         19.81287        27.11856         0.17802
C         20.97558        29.16048         0.79921
C         19.76503        29.85456         0.79018
O         16.56639         6.69624        -1.48833
O         14.78769         8.94975        -2.16175
O         19.13474        25.50745        -1.55525
O          3.56041        24.30473         2.07409
O          8.26745         5.71065        -1.08088
O         14.18163        12.29164        -2.34893
O          4.91261         5.12392         1.85119
O         15.28496        16.74496        -2.43569
O         20.72540        16.72868        -2.15263
O         13.97474        21.15841        -1.92930
O          1.62951        22.69956         1.96689
H          1.97178        23.47322         2.47801
O          9.69761         5.89710         2.29362
H         10.36429         5.33954         2.74865
O          4.87589        21.01068         2.37323
H          4.04092        21.40383         2.71037
O          7.33787        27.03773         2.70653
H          6.53681        26.52937         2.95962
O          8.20677        12.16725        -2.04806
H          8.97041        11.82872        -2.56042
O          6.06283         7.67530         1.84555
H          6.11648         8.58649         2.20210
O         11.45459        20.41708         1.89258
H         11.54861        21.34094         2.24330
O         16.75147        13.02658         1.33282
H         16.83362        12.16256         1.79164
O         13.37564        25.20492        -1.70094
H         14.07507        24.70168        -2.17129
O         12.63333        14.00648         1.12122
H         11.77964        13.79546         1.55901
O         16.11589        23.18389         1.57256
H         17.04968        23.35108         1.85347
O          7.64086        12.54134         1.54919
H          6.82001        12.75872         2.04041
O          5.80120         6.34032        -1.54377
H          6.67443         6.29394        -2.00022
O          2.04147        23.29555        -1.62187
H          1.44660        23.66246        -2.30863
O         18.44827        15.88581        -2.61926
H         19.31187        16.18992        -3.01924
O         18.88705        23.25718         1.26655
H         19.07416        22.30144         1.39567
O          7.42663        22.49169         2.49302
H          6.63171        21.95178         2.73026
O          8.73382        15.13182         1.51333
H          8.58647        14.24945         1.93055
O          2.10357         5.98610         2.01760
H          2.93003         5.73042         2.48895
O         11.26024         8.18654         1.89257
H         10.58526         7.63723         2.36244
O         20.26877        14.13060        -1.74737
H         20.60795        15.03406        -2.02782
O         19.62164        23.06494        -2.36838
H         19.56663        24.04118        -2.51244
O         11.49093        23.20063         2.14749
H         10.74123        23.57606         2.65907
O         17.32532        30.97011         1.48532
H         16.46327        31.43189         1.50617
O          8.55973        16.03013        -2.03294
H          8.52894        16.88972        -2.50213
O         14.60085         5.11262        -1.81301
H         15.18021         5.74363        -2.30706
O          2.52612        14.21352        -2.45653
H          1.73095        13.74980        -2.79672
O         18.20064        15.46449         1.01136
H         17.78485        14.71960         1.50646
O          1.45201         5.87295        -1.59936
H          0.73751         6.23329        -2.16452
O         16.50999         6.01807         2.07740
H         17.12260         5.66392         2.75617
H          1.12554         2.37535         0.57755
H         -1.02797         3.62302         0.54365
H         -1.10225         6.02224         0.01906
H         -1.03307         7.95769        -0.31611
H         -1.03051        10.38242        -0.51700
H         -1.01774        12.28701        -0.68682
H         -1.01667        14.69879        -0.63429
H         -0.98834        16.60536        -0.69515
H         -0.96428        19.01189        -0.49385
H         -0.95626        20.89562        -0.28749
H         -0.87072        23.30069        -0.51988
H         -0.76816        25.19053        -0.75348
H         -0.75487        27.64809        -0.69378
H          0.47257        29.79575        -0.42394
H          3.59397         2.37108         0.36830
H          2.59561        31.00740         0.00049
H          6.16590         2.35026         0.80622
H          5.02128        30.97931         0.41406
H          8.65871         2.35935         0.56886
H          7.45536        30.96474         0.79862
H         11.10671         2.39036         0.72079
H          9.89729        30.96120         0.76107
H         13.54354         2.45435         0.95988
H         12.36642        30.95989         0.67294
H         16.00401         2.37005         0.70179
H         14.79933        30.96796         0.57617
H         18.45809         2.44905         1.05033
H         17.34907        30.57680        -0.56675
H         20.52118         3.78366         1.33205
H         21.71999         5.89921         1.25214
H         21.76601         8.33911         0.96107
H         21.78394        10.20697         0.69617
H         21.79397        12.63012         0.31054
H         21.33922        14.68228         1.20241
H         21.36839        17.10891         0.70600
H         21.93115        18.67182        -1.02248
H         21.96258        21.14435        -0.97290
H         21.99602        22.99590        -0.41630
H         21.99447        25.32890         0.17996
H         21.96456        27.28099         0.43687
H         21.91227        29.68576         1.03093
H         19.73976        30.92848         1.01844
