         488
 CSIRO Nanostructure Databank - Neutral Graphene Oxide Data Set
C         38.22965        49.63920        -2.40052
C         37.20010        50.24586        -3.08427
C         38.11304        52.42671        -2.56248
C         37.12866        51.65547        -3.15124
C         40.30122        48.37950        -0.76780
C         40.25808        49.78825        -0.96888
C         39.24405        50.40586        -1.74224
C         40.29058        52.64305        -1.36396
C         39.20257        51.83979        -1.86762
C         40.34918        54.03864        -1.63878
C         42.36298        48.54873         0.56789
C         41.24658        47.77618         0.01704
C         42.48086        49.94674         0.20370
C         41.18455        50.64214        -0.12980
C         42.49621        52.79755        -0.26504
C         41.36657        52.04810        -0.64455
C         42.52051        54.21004        -0.54498
C         41.41139        54.79776        -1.21827
C         44.95119        45.72464         0.73377
C         43.77427        46.37695         0.70329
C         44.92456        48.63303         0.99419
C         43.67761        47.82176         0.96285
C         44.87942        50.00343         0.99050
C         43.55172        50.75254         0.89753
C         44.83643        52.86914         0.47454
C         43.67061        52.16061         0.33619
C         44.82214        54.34006         0.36364
C         43.62942        55.00823        -0.16065
C         44.83593        57.14101        -0.23551
C         43.65880        56.42097        -0.28740
C         47.57387        44.22767         1.03240
C         47.51044        45.68299         1.19082
C         46.18969        46.43337         1.09448
C         47.39439        48.59195         0.93225
C         46.20891        47.92103         0.96559
C         47.47147        50.04359         1.34733
C         46.12851        50.78145         1.22997
C         47.39836        52.94443         0.61237
C         46.11295        52.25897         0.95272
C         47.39839        54.30620         0.28167
C         46.14492        55.10269         0.34065
C         47.30109        57.16186        -0.43827
C         46.11183        56.50424        -0.14137
C         47.38455        58.55144        -0.84763
C         50.01443        44.32115         0.96706
C         48.77534        43.59610         0.94592
C         49.97305        45.75461         0.90203
C         48.75082        46.43352         0.97422
C         49.93446        48.64443         0.75838
C         48.66265        47.87166         0.53755
C         49.88663        50.07704         0.67878
C         48.66084        50.78700         0.75817
C         49.85397        52.90084         0.28936
C         48.62890        52.19796         0.55931
C         49.83840        54.30625         0.01845
C         48.60306        54.97549        -0.07037
C         49.85204        57.17577        -0.46189
C         48.55895        56.39190        -0.47824
C         49.76538        58.66010        -0.13497
C         48.54154        59.25725        -0.78646
C         52.54669        41.57042         1.12085
C         51.33886        42.22576         1.11258
C         52.49307        44.38068         0.90060
C         51.27067        43.64150         0.99105
C         52.44417        45.82634         0.82597
C         51.21383        46.50128         0.81437
C         52.39163        48.68533         0.74207
C         51.15605        47.95179         0.77645
C         52.36006        50.09681         0.55427
C         51.11836        50.79529         0.50418
C         52.33458        52.89579         0.06619
C         51.09908        52.20193         0.31065
C         52.34211        54.34689        -0.03886
C         51.08676        55.05384        -0.04056
C         52.27341        57.24725         0.10700
C         51.06706        56.44959        -0.08837
C         52.26285        58.67922        -0.27767
C         51.08206        59.38223        -0.39198
C         52.28704        61.53185        -0.41522
C         51.12044        60.82534        -0.42104
C         55.11567        40.17919         0.99877
C         55.02858        41.54681         1.00762
C         53.77076        42.28055         0.98205
C         55.00821        44.44988         0.59056
C         53.73216        43.68958         0.88591
C         54.92567        45.92308         0.91446
C         53.68561        46.57745         0.85698
C         54.86063        48.75637         0.82012
C         53.63863        48.00837         0.82169
C         54.82987        50.15435         0.54463
C         53.58370        50.80630         0.35644
C         54.77700        52.84561        -0.52139
C         53.53833        52.19460         0.02549
C         54.80121        54.34612        -0.35403
C         53.55893        55.03447        -0.15317
C         54.81429        57.23168        -0.32081
C         53.60831        56.48886         0.03132
C         54.83247        58.62600        -0.32359
C         53.54954        59.34029        -0.53840
C         54.87678        61.54318        -0.39379
C         53.57538        60.86640        -0.64196
C         54.92920        62.94290        -0.35618
C         57.44830        40.15380         1.73288
C         56.37458        39.49673         1.22247
C         57.33229        41.64136         2.00318
C         56.34929        42.28544         0.99120
C         57.37440        44.50724         1.37586
C         56.24179        43.78395         1.15000
C         57.39049        45.95681         1.22986
C         56.12805        46.66867         1.09926
C         57.33577        48.86239         1.24622
C         56.09243        48.08125         1.06546
C         57.33908        50.38603         1.03059
C         56.05621        50.91827         0.43686
C         57.28926        52.94054        -0.25833
C         56.05124        52.20668        -0.03952
C         57.24624        54.28743        -0.59833
C         56.00472        55.01533        -0.52595
C         57.28207        57.19539        -0.30997
C         56.03419        56.50283        -0.79173
C         57.29661        58.58149        -0.13392
C         56.06230        59.34231        -0.27116
C         57.29682        61.47580         0.04562
C         56.07902        60.78718        -0.22117
C         57.32277        62.88865         0.08565
C         56.12969        63.60893        -0.14743
C         59.85556        37.35595         1.68155
C         58.73801        38.01471         2.08164
C         59.93315        40.19381         1.70387
C         58.70470        39.50057         2.27443
C         59.92810        41.59053         1.61671
C         58.69338        42.35211         1.94807
C         59.90169        44.46816         1.19728
C         58.66669        43.82549         1.68310
C         59.86543        45.90693         1.02048
C         58.60605        46.61739         1.11142
C         59.83739        48.77835         0.63901
C         58.63738        48.09391         1.15799
C         59.77255        50.13500         0.21065
C         58.55758        50.91297         0.28288
C         59.75701        52.89797        -0.64649
C         58.53914        52.20813        -0.22214
C         59.76889        54.25607        -0.79296
C         58.49737        55.06520        -0.92490
C         59.76241        57.17654        -0.27084
C         58.51373        56.36610        -0.08052
C         59.76141        58.55445        -0.00365
C         58.53648        59.25998         0.13184
C         59.81894        61.41307         0.18810
C         58.52595        60.71784         0.51585
C         59.89003        62.91880         0.13615
C         58.56045        63.60508         0.37556
C         59.81409        65.61213         1.02286
C         58.58581        64.91503         0.78523
C         62.19060        35.86355         0.76502
C         62.24893        37.27022         0.94219
C         61.08339        38.02560         1.35342
C         62.32186        40.16499         1.09368
C         61.11398        39.45786         1.38200
C         62.31707        41.56602         0.99894
C         61.09400        42.29470         1.19340
C         62.23623        44.41292         0.35722
C         61.05276        43.72181         0.99841
C         62.33886        45.87360         0.77594
C         61.04841        46.61166         0.83182
C         62.18611        48.59807        -0.05738
C         61.03507        48.02497         0.54840
C         61.93868        49.79110        -0.73504
C         60.87746        50.66374        -0.49767
C         62.28649        52.82460        -0.39851
C         61.00714        52.10554        -0.98707
C         62.32384        54.31025        -0.67483
C         61.04669        55.00649        -0.90233
C         62.27392        57.10927        -0.01837
C         61.02055        56.49653        -0.60540
C         62.25617        58.61226        -0.09465
C         61.04053        59.27326         0.01623
C         62.27658        61.39048         0.32277
C         61.02117        60.70973         0.15208
C         62.25938        62.71254         0.96605
C         60.92920        63.42289         1.15100
C         62.28543        65.62421         1.24605
C         61.02118        64.94620         1.11292
C         62.34962        67.07849         1.21590
C         64.54828        35.78790         0.17259
C         63.32360        35.14443         0.42775
C         64.63116        37.20476         0.28065
C         63.48096        37.92731         0.70090
C         64.79900        40.05489         0.50777
C         63.61251        39.36751         1.12919
C         64.82988        41.53037         0.64849
C         63.55343        42.30688         0.72096
C         64.74306        44.41358         0.05251
C         63.53544        43.65906         0.49322
C         64.84399        45.88946         0.16467
C         63.61597        46.62390         0.54167
C         64.86114        48.71159        -0.29629
C         63.58861        48.14266         0.36477
C         64.96610        50.10673        -0.57229
C         63.83174        50.87202        -0.96826
C         64.86767        52.94597        -0.50833
C         63.65344        52.20768        -0.69457
C         64.81892        54.36215        -0.57267
C         63.52889        55.02981        -0.60477
C         64.73709        57.19751        -0.54576
C         63.54173        56.46313        -0.50502
C         64.72654        58.63112        -0.32827
C         63.50428        59.32096        -0.11999
C         64.75901        61.45492         0.17663
C         63.50625        60.73496         0.12842
C         64.78235        62.85343         0.52034
C         63.55493        63.46361         1.06781
C         64.75851        65.60779         1.30528
C         63.51260        64.92789         1.22842
C         64.73592        66.99673         1.89549
C         63.50356        67.74245         1.44026
C         67.01221        32.91223         0.19313
C         65.83089        33.57095         0.18508
C         67.05368        35.71586        -0.41982
C         65.73319        34.98761        -0.21365
C         67.07631        37.18628        -0.26179
C         65.88905        37.89578         0.02323
C         67.25576        40.04653        -0.04501
C         65.91110        39.34463         0.11386
C         67.11242        41.47378        -0.59438
C         66.05790        42.22301         0.18902
C         67.31559        44.33732        -0.05739
C         65.99456        43.66048        -0.17453
C         67.32973        45.82313         0.00551
C         66.03487        46.55571         0.01067
C         67.33147        48.68098        -0.23572
C         66.07945        48.00897        -0.13599
C         67.39131        50.09246        -0.31020
C         66.17199        50.82428        -0.42569
C         67.32665        53.00032        -0.53280
C         66.12225        52.25993        -0.48247
C         67.26589        54.38152        -0.76194
C         66.02245        55.09016        -0.73870
C         67.17321        57.29570        -0.95508
C         65.99161        56.53090        -0.78866
C         67.15115        58.69360        -0.74850
C         65.95359        59.36520        -0.37210
C         67.20694        61.52924        -0.21140
C         65.96515        60.78111        -0.12694
C         67.15827        63.05153        -0.23222
C         65.94133        63.62126         0.45002
C         67.22792        65.67493         1.08454
C         65.96024        64.97062         0.94467
C         67.25218        67.00187         1.51641
C         66.03639        67.74319         1.72822
C         67.31783        69.83751         1.81774
C         66.08116        69.10978         1.86830
C         69.54388        31.45432         0.41927
C         69.48986        32.81643        -0.01346
C         68.28858        33.54480        -0.09927
C         69.53760        35.66784        -0.41882
C         68.31761        34.96346        -0.31194
C         69.53640        37.10850        -0.56350
C         68.33343        37.83040        -0.46372
C         69.62548        40.00616        -0.81623
C         68.29526        39.28122        -0.86406
C         69.65606        41.43802        -0.79325
C         68.45482        42.19684        -0.61237
C         69.74165        44.31035        -0.62007
C         68.51998        43.58537        -0.47403
C         69.75815        45.76700        -0.54186
C         68.59034        46.50113        -0.31571
C         69.85668        48.66686        -0.50048
C         68.63563        47.96045         0.02922
C         69.84587        50.09605        -0.58475
C         68.63660        50.79212        -0.40614
C         69.74486        52.91189        -1.16432
C         68.65692        52.30083        -0.28298
C         69.79820        54.41588        -0.91086
C         68.48884        55.10665        -1.15673
C         69.72292        57.32926        -1.16781
C         68.45184        56.61718        -1.28104
C         69.70233        58.77727        -1.21536
C         68.35620        59.49813        -0.99729
C         69.62028        61.71021        -0.91972
C         68.37792        60.90716        -0.57143
C         69.67779        63.04699        -0.19312
C         68.45739        63.70178         0.19452
C         69.71362        65.72459         0.86157
C         68.46341        64.98361         0.75101
C         69.75008        67.04831         1.19678
C         68.55649        67.68208         1.86950
C         69.84837        69.90969         1.94652
C         68.51672        69.19731         1.78346
C         69.79948        71.41879         1.79231
C         71.95666        31.61358         0.75635
C         70.73216        30.85941         0.76839
C         71.98941        32.86549         0.23951
C         70.78878        33.44049        -0.47458
C         71.94059        35.64579        -0.77719
C         70.77446        34.95283        -0.50311
C         71.94720        37.05059        -0.91539
C         70.78382        37.80064        -0.79618
C         72.04665        39.97814        -0.93335
C         70.81448        39.26873        -0.86507
C         72.08734        41.35719        -0.95466
C         70.90373        42.13456        -0.86842
C         72.15065        44.31891        -0.98587
C         70.93942        43.58244        -0.83691
C         72.17469        45.70253        -0.93541
C         71.00729        46.47404        -0.72212
C         72.24620        48.65813        -0.97073
C         71.02764        47.92332        -0.72783
C         72.27927        50.02314        -0.99662
C         71.08437        50.81830        -0.87018
C         72.25055        52.98105        -1.38522
C         71.08043        52.20525        -1.05407
C         72.25823        54.34283        -1.45112
C         71.07351        55.16118        -1.09657
C         72.20241        57.41347        -1.03073
C         71.01710        56.63019        -1.53074
C         72.14873        58.73855        -0.77325
C         70.94029        59.53030        -0.93256
C         72.13659        61.64360        -0.61515
C         70.91495        60.90829        -0.79130
C         72.12868        62.97044        -0.28685
C         70.90514        63.65913        -0.00874
C         71.91402        65.94238        -0.24807
C         71.03360        65.03675         0.58325
C         71.92656        67.24969         0.02153
C         71.07852        67.79954         1.15413
C         72.18855        70.07827         1.03943
C         70.88273        69.31369         0.96795
C         72.17674        71.40982         1.23665
C         70.92148        72.10448         1.49636
O         68.38938        55.71360        -2.49145
O         61.10596        56.02534        -1.99478
O         46.71713        46.05497         2.41656
O         65.18248        43.98240        -1.33124
O         70.53649        54.88058         0.25042
O         62.87080        50.18055        -1.69846
O         49.29946        56.72028        -1.72631
O         63.21076        46.18698         1.91110
O         46.00343        51.75141         2.33449
O         67.47256        44.98747         1.25358
O         66.22294        35.26971        -1.56559
O         58.09445        48.55079         2.46598
O         65.90300        41.97850         1.61223
O         42.71401        48.20026         1.98613
O         53.03039        56.95204         1.31778
O         58.81951        43.30045         3.06474
O         63.01671        62.71026         2.23900
O         45.39562        54.94716         1.58360
O         53.57805        60.02819        -1.84138
O         68.90540        59.33088        -2.36276
O         67.82169        40.12729         1.28314
H         67.24201        40.73061         1.81330
O         56.91626        42.10424        -0.35102
H         56.83242        41.15277        -0.58040
O         68.78046        67.38827         3.30093
H         69.60069        67.88753         3.54721
O         64.58377        66.82100         3.34972
H         63.79684        66.25275         3.49212
O         58.51511        55.90540         1.31400
H         58.55754        56.69617         1.89299
O         57.40145        50.99725         2.35336
H         57.93737        50.38845         2.91522
O         43.06944        50.93586         2.28215
H         42.99229        50.02430         2.65993
O         58.69131        39.73647         3.71821
H         58.01810        40.43355         3.91118
O         71.70691        64.87102         1.88542
H         71.09947        64.36394         2.46506
O         49.55127        58.70096         1.31154
H         49.53542        59.63978         1.59185
O         40.49927        50.80726         1.17332
H         41.18572        51.14157         1.80412
O         71.77444        67.58394         2.39995
H         71.94574        66.60935         2.45861
O         69.01234        52.58812         1.09754
H         68.45340        52.03447         1.68163
O         47.78264        49.95960         2.77344
H         47.34658        50.73644         3.19920
O         62.19224        56.78303         1.41731
H         62.91314        57.26594         1.87441
O         71.06391        56.61145        -2.99437
H         70.15375        56.38231        -3.30051
O         70.94369        33.03415        -1.88864
H         70.92015        32.05344        -1.90722
O         58.44078        55.45266        -2.33181
H         59.34892        55.77201        -2.57556
O         60.37500        63.30756        -1.17907
H         59.70911        63.03420        -1.84377
O         54.71003        52.62535        -1.98265
H         55.43898        53.14347        -2.38773
O         63.69916        48.72427         1.69905
H         63.40460        48.02815         2.33609
O         67.01264        63.38548        -1.65464
H         67.82035        63.03719        -2.11349
O         62.13135        52.66815         1.04623
H         62.82508        53.19863         1.49170
O         56.01784        56.64431        -2.26266
H         56.87768        56.26360        -2.58577
O         61.96020        44.48168        -1.08090
H         62.12428        43.59705        -1.47028
O         58.47156        60.76238         1.99969
H         58.97185        61.56543         2.28996
O         61.09740        52.11809        -2.42534
H         61.78925        51.46667        -2.68452
O         60.41950        63.03848         2.45594
H         61.20260        62.97195         3.05091
O         69.45268        62.03978        -2.34413
H         69.32699        61.17125        -2.80409
O         69.29989        52.73517        -2.53470
H         69.97045        53.12458        -3.13376
O         56.80616        41.78838         3.34061
H         57.27002        42.57188         3.73244
O         66.58037        41.47704        -1.93656
H         67.07586        40.80887        -2.46888
O         63.93845        39.30785         2.57188
H         64.81056        38.86743         2.65991
O         68.79425        47.98235         1.50839
H         68.24876        47.25109         1.87445
O         70.30517        69.64954         3.30569
H         69.74362        70.17300         3.91463
O         48.53940        47.77197        -0.94974
H         49.40211        47.45086        -1.29196
O         70.35726        69.48078        -0.37190
H         70.27481        70.44281        -0.54273
O         67.88255        39.24692        -2.27202
H         68.50175        38.65668        -2.75172
O         55.18178        44.38074        -0.87442
H         55.70617        43.56721        -1.06564
H         38.25175        48.54279        -2.34796
H         36.42496        49.63614        -3.56887
H         38.03294        53.51892        -2.63983
H         36.29444        52.13673        -3.67987
H         39.52363        47.74423        -1.21435
H         39.53798        54.53162        -2.18915
H         41.16283        46.70515         0.24064
H         41.41902        55.87249        -1.44179
H         44.97184        44.63530         0.59106
H         42.85034        45.80869         0.53214
H         44.79427        58.22686        -0.39607
H         42.72612        56.96637        -0.48603
H         46.64726        43.63987         1.07872
H         46.47445        59.04874        -1.21527
H         48.78740        42.50083         0.87182
H         48.55720        60.30543        -1.11927
H         52.55678        40.47880         1.23679
H         50.42097        41.63443         1.22127
H         52.25684        62.61646        -0.23960
H         50.17116        61.36981        -0.30514
H         54.22169        39.54936         0.89229
H         54.01629        63.53133        -0.52020
H         56.40201        38.40625         1.07924
H         56.14247        64.70681        -0.16189
H         59.81665        36.25904         1.63381
H         57.85257        37.43994         2.39002
H         59.76001        66.70373         1.13617
H         57.64906        65.47648         0.91473
H         61.24980        35.31754         0.90695
H         61.44226        67.64644         0.96808
H         63.24406        34.05472         0.31648
H         63.50915        68.84108         1.40587
H         67.00720        31.85168         0.47791
H         64.92215        33.03913         0.50062
H         67.25800        70.93527         1.84312
H         65.16098        69.68746         2.02799
H         68.61549        30.88181         0.55217
H         68.88297        71.96763         2.05540
H         72.85917        31.16668         1.19774
H         70.74320        29.82452         1.13650
H         72.93345        33.42895         0.22956
H         72.88802        35.10567        -0.90856
H         72.90840        37.53905        -1.12185
H         72.99669        39.42885        -0.96665
H         73.06674        41.85118        -1.00933
H         73.09700        43.78804        -1.15542
H         73.14363        46.20320        -1.06538
H         73.18727        48.11064        -1.11578
H         73.24259        50.52485        -1.16286
H         73.19197        52.45071        -1.59378
H         73.17849        54.86341        -1.75399
H         73.15283        56.87790        -0.88842
H         73.06093        59.23815        -0.41792
H         73.09989        61.13098        -0.73520
H         73.07738        63.50576        -0.14375
H         72.52136        65.51447        -1.05941
H         72.55188        67.93978        -0.56402
H         73.13257        69.54905         0.84366
H         73.10653        71.99644         1.21930
H         70.91492        73.20441         1.47484
