         429
 CSIRO Nanostructure Databank - Neutral Graphene Oxide Data Set
C          1.25981         3.72089         1.97329
C          0.11820         4.44957         2.10991
C          1.21329         6.53756         1.45274
C          0.11587         5.88229         1.90611
C          1.21617         8.04477         1.28124
C          0.00864         8.51247         0.50473
C          1.22500        10.48419        -0.25553
C          0.02191         9.69639        -0.14952
C          1.09773        11.83602        -0.92133
C          0.01117        12.67292        -0.27846
C          1.20512        14.82489        -0.49041
C          0.05024        14.02429        -0.16777
C          1.27521        16.20466        -0.22429
C          0.14564        16.94085         0.28119
C          1.38370        19.05971         0.25024
C          0.20631        18.28341         0.52252
C          1.40621        20.44862         0.48298
C          0.34645        21.20077         1.08285
C          1.53931        23.32091         0.69244
C          0.46585        22.55618         1.27844
C          1.57416        24.81174         0.92249
C          0.29054        25.49298         0.49738
C          1.44993        27.62531         0.90263
C          0.24504        26.82702         0.45426
C          1.38673        29.09891         0.58480
C          0.23070        29.76579         0.32251
C          1.26259        31.98972         0.42684
C          0.15981        31.19424         0.22431
C          1.19781        33.44020         0.37694
C         -0.00829        34.15395         0.48489
C          1.15576        36.29924         0.48738
C         -0.03705        35.55378         0.50085
C          1.18775        37.75559         0.61112
C          3.70071         3.70548         1.66535
C          2.50397         4.36055         1.60957
C          3.70674         6.56736         1.50726
C          2.46399         5.78134         1.08010
C          3.70938         7.94409         0.86713
C          2.50975         8.61215         0.71015
C          3.68197        10.66267        -0.13866
C          2.45288         9.92963         0.08937
C          3.69784        11.95157        -0.67339
C          2.41912        12.60657        -1.03555
C          3.70493        14.82999        -0.90022
C          2.41345        14.12273        -0.95779
C          3.69987        16.24575        -0.81258
C          2.49516        16.93988        -0.46107
C          3.73797        19.04080        -0.59306
C          2.54105        18.34969        -0.27385
C          3.80935        20.49089        -0.36350
C          2.62910        21.21363         0.18025
C          3.46021        23.43060        -0.89776
C          2.56530        22.68126         0.06343
C          3.64974        24.88940        -0.55498
C          2.72435        25.54964         0.22103
C          3.77249        27.75587        -0.21083
C          2.71697        26.98601         0.32864
C          3.79182        29.17359        -0.06916
C          2.70014        29.81527         0.78202
C          3.79153        32.10643         0.16992
C          2.58747        31.34046         0.63946
C          3.62295        33.54084        -0.10025
C          2.41752        34.18613         0.20551
C          3.62051        36.32058         0.54416
C          2.38358        35.61759         0.33951
C          3.57486        37.64143         1.28398
C          2.32428        38.40918         0.92867
C          6.14974         3.61300         1.23625
C          4.95876         4.38271         1.37787
C          6.21512         6.50207         1.02581
C          4.96413         5.77476         1.24527
C          6.17957         7.89896         0.51982
C          4.96431         8.57117         0.51391
C          6.24702        10.71594        -0.12873
C          4.94006        10.02621         0.26124
C          6.17460        12.03276        -0.77111
C          4.92728        12.68090        -0.86545
C          6.12508        14.81868        -1.30687
C          4.90260        14.11209        -1.08199
C          6.09640        16.22779        -1.36425
C          4.91624        16.95177        -1.05436
C          6.14837        19.12439        -1.20054
C          4.92534        18.38709        -0.99919
C          6.18515        20.56080        -1.12282
C          4.88236        21.24664        -1.06483
C          6.08466        23.47786        -1.17992
C          4.79761        22.73094        -1.21975
C          6.06395        24.89476        -1.17222
C          4.71036        25.57769        -1.40978
C          5.99454        27.88725        -1.59270
C          4.61481        27.15736        -1.33978
C          6.09227        29.23875        -0.89566
C          4.93961        29.94229        -0.45513
C          6.13085        32.11693        -0.69177
C          4.99901        31.38724        -0.30989
C          6.13323        33.63075        -0.60506
C          4.83730        34.34010        -0.30196
C          6.04385        36.27182         0.88362
C          4.81867        35.68861         0.32281
C          6.07989        37.73240         1.14973
C          4.86892        38.40981         1.18851
C          8.58414         3.49468         0.78476
C          7.38922         4.20713         0.94605
C          8.56024         6.24821         0.01262
C          7.46085         5.68816         0.87588
C          8.61109         7.75447         0.00291
C          7.42082         8.51825         0.08563
C          8.58770        10.50386        -0.88327
C          7.45552         9.90273        -0.29717
C          8.58103        11.88560        -1.26809
C          7.39358        12.65534        -1.17934
C          8.56372        14.77032        -1.67102
C          7.37638        14.09089        -1.44327
C          8.60790        16.22595        -1.89758
C          7.29929        16.98552        -1.73975
C          8.57876        19.11924        -1.59692
C          7.35898        18.43516        -1.48348
C          8.57037        20.61505        -1.83368
C          7.33465        21.30853        -1.31740
C          8.55447        23.47050        -1.15140
C          7.31409        22.75812        -1.22758
C          8.51486        24.88370        -1.07403
C          7.28074        25.59225        -1.18443
C          8.58974        27.79682        -1.35458
C          7.29164        27.05107        -1.49060
C          8.56844        29.26452        -1.14952
C          7.31992        29.94291        -0.98423
C          8.57491        31.97154        -1.29738
C          7.32800        31.37090        -0.99307
C          8.59136        34.01846        -0.73112
C          7.37035        34.35593        -0.19420
C          8.60788        36.28951         0.78982
C          7.35298        35.53259         0.68289
C          8.58232        37.65774         1.21503
C          7.34293        38.35127         1.34585
C         11.06166         3.47127         0.72458
C          9.84268         4.16814         0.60375
C         11.07710         6.27452         0.22051
C          9.86557         5.56740         0.31399
C         11.07317         7.68380        -0.18115
C          9.83760         8.36267        -0.34508
C         11.17456        10.39347        -1.23216
C          9.81979         9.69596        -0.97224
C         11.18761        11.86530        -1.54536
C          9.83349        12.55031        -1.72294
C         11.13173        14.81917        -1.64446
C          9.82948        14.04719        -1.82633
C         11.06065        16.28693        -1.42529
C          9.85600        16.97621        -1.64262
C         11.05238        19.12727        -1.52954
C          9.81862        18.40355        -1.60139
C         11.03945        20.59114        -1.51232
C          9.85861        21.31509        -1.50040
C         11.04176        23.44570        -1.25677
C          9.83875        22.75998        -1.27845
C         11.10606        24.86747        -0.90136
C          9.77323        25.62439        -0.82204
C         11.04295        27.74721        -1.04802
C          9.83975        27.08137        -1.00380
C         11.03581        29.21668        -1.23919
C          9.77862        29.95127        -1.04986
C         11.03924        32.15348        -0.72607
C          9.82621        31.38580        -1.02657
C         11.03751        33.55610        -0.27464
C          9.85464        34.36851        -0.16957
C         11.06048        36.27178         0.81636
C          9.83154        35.64018         0.49992
C         11.05321        37.62961         1.28259
C          9.81899        38.31310         1.42523
C         13.54287         3.48851         0.84022
C         12.29931         4.15979         0.66419
C         13.54143         6.30883         0.53914
C         12.28269         5.57406         0.46314
C         13.54658         7.75905         0.15621
C         12.29829         8.39459        -0.32269
C         13.58626        10.51199        -0.54438
C         12.37263         9.74616        -0.70554
C         13.56471        11.97531        -0.68389
C         12.37301        12.67802        -1.15763
C         13.45544        14.88135        -0.76651
C         12.33564        14.08034        -1.19477
C         13.48358        16.28211        -0.91017
C         12.27084        17.00492        -1.25128
C         13.56709        19.10314        -1.68935
C         12.25918        18.41648        -1.40429
C         13.49710        20.60535        -1.49590
C         12.31751        21.28991        -1.48271
C         13.58912        23.49437        -1.36204
C         12.30321        22.78171        -1.75962
C         13.58522        24.94675        -1.25904
C         12.34648        25.64059        -1.12121
C         13.53595        27.79957        -1.09710
C         12.31908        27.05368        -1.07136
C         13.54460        29.22241        -0.88838
C         12.30853        30.00674        -1.07547
C         13.46676        32.02153        -0.18869
C         12.25649        31.43026        -0.65742
C         13.46279        33.37965         0.27728
C         12.23623        34.13069         0.25036
C         13.45444        36.11743         1.15401
C         12.26107        35.50972         0.72126
C         13.49219        37.50708         1.50973
C         12.29176        38.25115         1.55667
C         16.02601         3.50216         1.02272
C         14.79056         4.17081         0.80294
C         16.02712         6.30632         0.55931
C         14.81208         5.57870         0.58403
C         16.05115         7.70577         0.26037
C         14.83484         8.34784        -0.35934
C         16.00323        10.55168        -0.00425
C         14.78569         9.85242        -0.24551
C         15.89568        12.02353         0.30350
C         14.69493        12.69466        -0.33635
C         15.90503        14.93989        -0.04239
C         14.62819        14.16200        -0.24475
C         15.88030        16.38207        -0.32309
C         14.70803        17.03965        -0.67407
C         15.92909        19.17986        -0.89846
C         14.75660        18.46540        -0.99369
C         16.04561        20.57964        -1.36555
C         14.77428        21.34185        -1.60259
C         16.06900        23.45817        -1.10677
C         14.77178        22.79918        -1.35778
C         16.08612        24.97727        -1.19750
C         14.79159        25.67340        -1.32453
C         16.00782        27.80127        -1.11383
C         14.79204        27.10289        -1.21267
C         16.04932        29.27133        -0.82016
C         14.71065        29.89823        -0.56859
C         15.89263        31.86059         0.33007
C         14.68708        31.27038        -0.15387
C         15.88276        33.22669         0.75085
C         14.66423        33.95060         0.75856
C         15.94932        36.00342         1.46834
C         14.64060        35.26622         1.48136
C         15.96558        37.41013         1.72164
C         14.73935        38.12588         1.79631
C         18.47261         3.56717         1.41551
C         17.23336         4.21712         1.09766
C         18.45385         6.37931         0.98455
C         17.24510         5.63305         0.87076
C         18.45566         7.78935         0.76668
C         17.23879         8.44047         0.36811
C         18.50261        10.62643         0.11026
C         17.20058         9.87905         0.20445
C         18.39299        12.11346         0.40020
C         17.22168        12.76295         0.17170
C         18.47582        14.98649        -0.06896
C         17.19662        14.19439        -0.33113
C         18.40863        16.44148         0.08755
C         17.10953        17.11483         0.00554
C         18.43199        19.26537        -0.38782
C         17.11911        18.61868        -0.24280
C         18.49316        20.59042        -0.87407
C         17.31467        21.31806        -1.13980
C         18.58586        23.44084        -1.30435
C         17.33655        22.71931        -1.24649
C         18.61041        24.84949        -1.58048
C         17.35585        25.64866        -1.61587
C         18.51140        28.00688        -1.12732
C         17.29625        27.21205        -1.47623
C         18.42998        29.08593        -0.21713
C         17.07986        29.59082         0.26370
C         18.24612        31.68143         1.00023
C         17.09283        31.09178         0.51432
C         18.30608        33.09829         1.24208
C         17.10841        33.85273         1.15554
C         18.39599        35.91487         1.66682
C         17.14443        35.26706         1.43159
C         18.41972        37.33086         1.88433
C         17.20885        38.05859         1.89781
C         19.63480         4.28823         1.54860
C         20.84033         6.46361         1.54866
C         19.65613         5.70196         1.35638
C         20.84349         7.82849         1.37035
C         19.67234         8.53797         0.94633
C         20.90822        10.70030         0.72922
C         19.69816         9.93330         0.71388
C         20.90685        12.06125         0.65316
C         19.64018        12.84302         0.87076
C         20.76474        15.14417         1.02209
C         19.73433        14.28838         0.41748
C         20.73021        16.49280         0.87075
C         19.56642        17.18697         0.35470
C         20.76738        19.42607         0.32557
C         19.58300        18.61348         0.11643
C         20.86844        20.68360        -0.16957
C         19.83943        21.20074        -1.14339
C         21.00850        23.32451        -1.64489
C         19.80701        22.70344        -1.30894
C         21.02405        24.66363        -2.03982
C         19.83473        25.39560        -2.03183
C         20.92823        28.41088        -1.29458
C         19.77869        27.69573        -1.65005
C         20.83786        29.41805        -0.33534
C         19.59258        29.74579         0.21780
C         20.68036        31.54775         1.62539
C         19.42658        30.78622         1.31191
C         20.71343        32.89812         1.73650
C         19.54561        33.72700         1.56192
C         20.82207        35.84697         1.95102
C         19.60703        35.15670         1.72320
C         20.84307        37.23491         2.12608
C         19.66876        37.97601         2.10306
O          7.22672         6.36151         2.13812
O         11.75640        29.71685        -2.41722
O          4.60023        21.84213        -2.37463
O         16.87694        18.08632         1.09587
O         15.10938        14.59837         1.12963
O          8.12645        27.32186        -2.67150
O         10.49111         9.64117        -2.27284
O         10.61751        14.49351        -2.97480
O         16.14496        24.30450         0.10700
O         13.52134         7.42512         1.56216
O          8.57963        33.22992        -1.88050
O         10.57904        12.03118        -2.86323
O          3.73155        27.55889        -2.37244
O         19.53709        14.53222        -1.00475
O          7.83807        16.65081        -3.06700
O          5.72764        10.76778         1.25661
O         17.24000        26.51300        -2.76797
O          3.45852        31.95515         1.64679
O         19.91518        26.67750        -2.59934
O          6.59984        35.41777         1.95322
O          3.78292        20.81916         1.07629
O         10.46344        25.17082         0.39122
O          2.38711        13.39125        -2.26712
O          5.39602        34.30961        -1.68868
O         15.57828        20.86052        -2.75559
O          8.46705        20.74728        -3.30437
H          7.61988        20.33652        -3.58227
O          2.66336        23.42978        -2.11759
H          3.19387        23.95792        -2.77363
O          8.19136         5.87044        -1.35850
H          8.88882         6.20496        -1.96183
O         16.56318        29.92469        -2.02707
H         15.98006        29.68102        -2.77705
O          1.46350        27.55231         2.36619
H          2.13705        28.21056         2.67684
O         19.07192        30.02463         2.52769
H         19.01047        30.66798         3.26580
O          5.94949        28.36622        -2.95170
H          4.97441        28.32270        -3.19083
O         14.43629        34.89851         2.91789
H         14.40358        35.74039         3.42205
O          2.51504         5.70660        -0.37485
H          1.75441         5.16653        -0.67499
O         17.12845        14.01393        -1.78470
H         18.06146        13.92629        -2.09590
O          3.44185        37.30775         2.71409
H          4.21403        36.75226         2.95720
O          3.14870        29.54683         2.15374
H          3.55152        30.39573         2.47347
O         14.87225         8.01853        -1.78765
H         15.68441         8.41424        -2.16832
O          1.74323        24.91005         2.35528
H          1.62583        25.86081         2.61603
O         13.77714        18.89033        -3.12401
H         14.54234        19.46151        -3.38516
O         20.25634        20.68859        -2.46701
H         20.29261        19.71032        -2.40201
O         12.23592        22.90259        -3.22024
H         12.87232        22.26558        -3.60990
O         18.80532        10.61689        -1.34651
H         18.10257        11.13483        -1.79610
O          1.07486         8.61058         2.62571
H          1.10250         9.58658         2.53918
O          0.62432        11.55334        -2.27000
H          0.93637        12.30496        -2.82865
O         15.62081        12.04489         1.74790
H         15.41338        12.98552         1.97667
O          3.63605         6.74174         2.94646
H          4.46674         7.16850         3.24461
O         16.71416        28.91751         1.48297
H         17.43991        29.10136         2.13052
O         19.47954        12.94791         2.32645
H         19.37487        12.04073         2.68426
O          4.41119        25.24852        -2.79341
H          3.93783        26.07344        -3.12191
H          1.26842         2.64384         2.19820
H         -0.81547         3.96431         2.42696
H         -0.79820         6.43810         2.16190
H         -0.91913         7.92500         0.56664
H         -0.88442        10.06468        -0.65090
H         -0.91592        12.14977        -0.00059
H         -0.83720        14.53032         0.23829
H         -0.79607        16.41397         0.48293
H         -0.68657        18.78922         0.91431
H         -0.55265        20.68555         1.44877
H         -0.32496        23.09818         1.81615
H         -0.58016        24.88534         0.20762
H         -0.67481        27.34002         0.14124
H         -0.71323        29.21739         0.20190
H         -0.81687        31.64703         0.00726
H         -0.95624        33.60718         0.58860
H         -1.00144        36.07308         0.59580
H          0.25192        38.31047         0.44317
H          3.73698         2.64458         1.95740
H          2.32877        39.50424         1.03695
H          6.08523         2.51822         1.32622
H          4.85779        39.49191         1.39164
H          8.58322         2.40032         0.89985
H          7.36879        39.42218         1.59671
H         11.05282         2.38836         0.91580
H          9.82431        39.36616         1.74256
H         13.53652         2.40434         1.02605
H         12.32052        39.31004         1.85167
H         16.02780         2.41537         1.19212
H         14.75989        39.19989         2.03132
H         18.47422         2.47907         1.57415
H         17.23230        39.14390         2.07528
H         20.57215         3.77870         1.81600
H         21.76201         5.94856         1.85635
H         21.77637         8.38198         1.54229
H         21.87560        10.17674         0.76103
H         21.85981        12.60935         0.62772
H         21.57797        14.66868         1.58886
H         21.55742        17.09231         1.27577
H         21.58008        19.02745         0.94971
H         21.76541        21.28677         0.03414
H         21.93500        22.73529        -1.67683
H         21.94765        25.13575        -2.39755
H         21.89227        28.15405        -1.75173
H         21.74300        29.95958        -0.02879
H         21.58744        30.96610         1.84605
H         21.66610        33.37673         2.00399
H         21.77334        35.29975         1.98544
H         21.80443        37.74069         2.29342
H         19.69344        39.06399         2.25788
