         424
 CSIRO Nanostructure Databank - Neutral Graphene Oxide Data Set
C          1.16998         2.06612         0.37454
C          1.14241         3.45413         0.20407
C          2.36500         1.36397         0.28115
C          2.32422         4.17257        -0.08557
C          1.14892         6.37516        -0.26005
C          1.14769         7.79996        -0.24934
C          2.31996         5.63189        -0.26632
C          2.31117         8.53349        -0.30707
C          1.15372        10.75885        -0.43208
C          1.12533        12.11391        -0.31316
C          2.33896         9.97702        -0.15827
C          2.21502        12.81936         0.37272
C          1.09522        15.04982         0.42119
C          1.11734        16.44857         0.49710
C          2.27708        14.30902         0.39028
C          2.33451        17.14046         0.47771
C          2.38214        18.57835         0.60152
C          3.57735         2.05332         0.01325
C          3.54059         3.46650        -0.16968
C          4.81499         1.35070        -0.04505
C          4.79400         4.16913        -0.61782
C          3.58593         6.32775        -0.33425
C          3.60039         7.81479        -0.60209
C          4.78812         5.64787        -0.33254
C          4.83085         8.50356        -0.06273
C          3.54240        10.62891         0.14605
C          3.49645        12.03819         0.58901
C          4.80145         9.91520         0.14983
C          4.78874        12.79940         0.89781
C          3.53949        14.98095         0.39958
C          3.55709        16.40942         0.36955
C          4.77945        14.27065         0.47423
C          4.79694        17.10563         0.23818
C          3.56828        19.24344         0.60860
C          4.82080        18.55292         0.38581
C          6.05683         2.03415        -0.11915
C          6.06415         3.46471        -0.22482
C          7.28772         1.34418        -0.04208
C          7.26056         4.17910        -0.13150
C          6.05019         6.33775        -0.16305
C          6.03052         7.78823         0.01638
C          7.23797         5.62657        -0.06551
C          7.26848         8.49474         0.17234
C          6.01789        10.61926         0.30693
C          6.00652        12.13410         0.24499
C          7.24024         9.92515         0.22064
C          7.29364        12.79335         0.77320
C          5.99469        14.95819         0.30613
C          5.98947        16.37433         0.08351
C          7.29209        14.27543         0.39708
C          7.22852        17.09727        -0.26500
C          6.01591        19.23874         0.41083
C          7.24905        18.60361        -0.05555
C          8.51558         2.04209        -0.08286
C          8.51281         3.47261        -0.08675
C          9.75786         1.34082        -0.15750
C          9.75338         4.17576        -0.17075
C          8.50302         6.30581         0.39795
C          8.50031         7.79353         0.17536
C          9.77168         5.62230        -0.07019
C          9.73052         8.49915         0.15372
C          8.49045        10.65061         0.17511
C          8.50254        12.04778         0.26860
C          9.71333         9.90721         0.12468
C          9.77573        12.77080         0.31183
C          8.46756        14.95051         0.20832
C          8.53226        16.32591        -0.42171
C          9.77256        14.26514         0.31611
C          9.78787        17.10252        -0.03205
C          8.54904        19.35006         0.16372
C          9.80926        18.51042         0.09020
C         10.95655         2.02192        -0.30549
C         10.95142         3.44289        -0.32365
C         12.23980         1.25298        -0.57409
C         12.22189         4.15263        -0.54250
C         10.95147         6.33970        -0.14878
C         10.99496         7.77633         0.04583
C         12.22143         5.65694        -0.47638
C         12.21662         8.44789        -0.00956
C         10.97879        10.64714         0.21821
C         10.95424        12.06379        -0.29836
C         12.27337         9.90254         0.17695
C         12.25949        12.79317        -0.18636
C         11.03187        14.95702        -0.05183
C         11.02000        16.39620        -0.03680
C         12.22786        14.24645        -0.18657
C         12.26350        17.08968         0.01103
C         11.02850        19.18906         0.20152
C         12.27572        18.51311         0.14276
C         13.50828         2.05221        -0.34217
C         13.48231         3.42495        -0.30676
C         14.75891         1.34998        -0.23148
C         14.72878         4.16873         0.13211
C         13.50134         6.36363        -0.24064
C         13.48233         7.77116        -0.16689
C         14.71703         5.66493        -0.11088
C         14.70759         8.50213        -0.16638
C         13.49312        10.64455        -0.19323
C         13.43928        12.07807        -0.29308
C         14.70112         9.94450        -0.25537
C         14.68743        12.78988        -0.74267
C         13.48390        14.95570        -0.24394
C         13.49570        16.37237        -0.08643
C         14.70148        14.25265        -0.38695
C         14.73805        17.07090        -0.05523
C         13.51696        19.19508         0.22264
C         14.74285        18.50536         0.13656
C         15.97957         2.02216        -0.27024
C         15.96786         3.52278        -0.49755
C         17.22444         1.35932        -0.23663
C         17.23802         4.20843        -0.05515
C         15.92123         6.38013         0.00981
C         15.93941         7.79669        -0.08818
C         17.17420         5.64278         0.40909
C         17.18829         8.53212        -0.05167
C         15.95695        10.66628        -0.31005
C         15.95965        12.05934        -0.40912
C         17.19390         9.93411        -0.17848
C         17.18389        12.80232        -0.41604
C         15.93307        14.94101        -0.37633
C         15.95485        16.36245        -0.19919
C         17.16677        14.20392        -0.48476
C         17.21701        17.06506        -0.12636
C         15.98646        19.17777         0.24211
C         17.21459        18.49292         0.13305
C         18.44924         2.06584        -0.19143
C         18.43297         3.52416        -0.03660
C         19.68132         1.39166        -0.18673
C         19.68617         4.22675         0.16740
C         18.44805         6.39870         0.15242
C         18.43823         7.81321         0.06845
C         19.67131         5.68514         0.20179
C         19.66502         8.53287         0.10697
C         18.43159        10.67000        -0.17955
C         18.43288        12.07590        -0.31219
C         19.66995         9.96842         0.01112
C         19.66640        12.80021        -0.29101
C         18.42791        14.96091        -0.79304
C         18.42651        16.38795        -0.30056
C         19.68075        14.21314        -0.43184
C         19.67656        17.07423        -0.19904
C         18.44949        19.17069         0.24263
C         19.68392        18.49785         0.09588
C         20.91078         2.08203        -0.04916
C         20.89586         3.51889         0.14975
C         22.14351         1.40108        -0.08496
C         22.15544         4.20969         0.24945
C         20.88645         6.39992         0.25418
C         20.90248         7.81892         0.24543
C         22.13793         5.66390         0.63745
C         22.13783         8.52337         0.36271
C         20.87712        10.68951         0.10605
C         20.89145        12.09535        -0.07185
C         22.12780        10.00672         0.59567
C         22.13386        12.81399        -0.13208
C         20.89102        14.92148        -0.38964
C         20.89266        16.37836        -0.34955
C         22.12006        14.19684        -0.31661
C         22.14804        17.08319        -0.24964
C         20.90872        19.18106         0.22049
C         22.16201        18.53206         0.01869
C         23.37437         2.09105         0.00662
C         23.34971         3.53268         0.13723
C         24.61492         1.41168         0.02789
C         24.64614         4.26864        -0.09424
C         23.40103         6.41185         0.31895
C         23.37933         7.83295         0.36909
C         24.61739         5.72300         0.29122
C         24.62319         8.54771         0.34477
C         23.40434        10.69944         0.17925
C         23.39772        12.08382        -0.06053
C         24.62664         9.97783         0.22245
C         24.63415        12.78338        -0.20100
C         23.37512        14.93223        -0.69252
C         23.33897        16.38293        -0.29438
C         24.65289        14.20659        -0.35475
C         24.59869        17.10509        -0.07455
C         23.35882        19.23790         0.04941
C         24.63924        18.58108        -0.39249
C         25.85134         2.06833         0.25727
C         25.87906         3.53040         0.36967
C         27.05170         1.35781         0.36999
C         27.02365         4.19860         0.67049
C         25.82585         6.42247         0.45415
C         25.84649         7.83500         0.43749
C         27.04618         5.68879         0.93083
C         27.11826         8.53540         0.39966
C         25.87032        10.66180         0.10651
C         25.86615        12.07393        -0.07953
C         27.11337         9.95274         0.18389
C         27.10484        12.76756        -0.19556
C         25.85750        14.88970        -0.37780
C         25.90998        16.35757        -0.20147
C         27.10306        14.17989        -0.38463
C         27.12951        17.10907        -0.47433
C         25.93446        19.17258         0.09876
C         27.14315        18.49905        -0.08654
C         28.29824         2.00347         0.63231
C         28.30242         3.46796         1.03311
C         29.49431         1.33000         0.51093
C         29.50655         4.17878         0.36890
C         28.35189         6.38118         0.57575
C         28.33939         7.83278         0.45973
C         29.52317         5.67840         0.56872
C         29.58704         8.52387         0.26058
C         28.34136        10.64860         0.01541
C         28.33934        12.06790        -0.16986
C         29.58463         9.94173         0.02197
C         29.56278        12.78342        -0.32152
C         28.30049        14.87231        -0.62322
C         28.20960        16.28020        -1.15572
C         29.54780        14.19793        -0.54592
C         29.55748        16.91340        -1.19549
C         28.39368        19.18655         0.27612
C         29.59086        18.96281        -0.36048
C         30.79732         1.98230         0.71486
C         30.81628         3.51476         0.74680
C         32.04156         1.31923         0.36174
C         32.06286         4.22150         0.38399
C         30.84097         6.39230         0.77456
C         30.81262         7.82471         0.29641
C         32.06017         5.62446         0.32032
C         32.03744         8.50264         0.07920
C         30.80337        10.63810        -0.17905
C         30.80166        12.07453        -0.34740
C         32.04114         9.92060        -0.15439
C         32.00821        12.79254        -0.50539
C         30.78925        14.91077        -0.64261
C         30.75617        16.34818        -0.88644
C         32.00345        14.20315        -0.57786
C         32.01710        17.18504        -1.10260
C         30.91957        19.26679         0.05580
C         32.05585        18.55085        -0.37315
C         33.23788         2.03193         0.19643
C         33.25362         3.48112         0.18430
C         34.46353         1.34096         0.00258
C         34.47129         4.17657        -0.09071
C         33.27223         6.32952         0.09540
C         33.27613         7.78143         0.04960
C         34.47465         5.61172        -0.09383
C         34.49402         8.48123        -0.07511
C         33.27229        10.60565        -0.31663
C         33.27839        12.03489        -0.80340
C         34.49210         9.91156        -0.21752
C         34.54227        12.79281        -0.46451
C         33.27540        14.97943        -0.33657
C         33.27388        16.39275        -0.84363
C         34.56037        14.19058        -0.54063
C         34.52890        17.10990        -0.91566
C         33.31293        19.15085        -0.18480
C         34.54717        18.53304        -0.51245
C         35.66862         2.03003        -0.21334
C         35.66399         3.44907        -0.32290
C         36.91859         1.31997        -0.22781
C         36.91431         4.15438        -0.77559
C         35.73530         6.31913        -0.20225
C         35.74623         7.77106        -0.11425
C         36.91120         5.62319        -0.42234
C         36.95588         8.47861        -0.09487
C         35.74358        10.63015        -0.23496
C         35.75886        12.06115        -0.30437
C         36.96201         9.92466        -0.07422
C         36.99543        12.75480        -0.16126
C         35.80063        14.87618        -0.47058
C         35.86183        16.32172        -0.71023
C         37.01258        14.18252        -0.22349
C         37.04802        17.05434        -0.27445
C         35.75938        19.17843        -0.28758
C         37.01453        18.48427        -0.20623
C         38.13408         1.99788        -0.18883
C         38.17836         3.43138        -0.34639
C         39.36560         1.29306         0.05354
C         39.38645         4.10025        -0.23495
C         38.17866         6.35222        -0.55223
C         38.21813         7.78097        -0.19004
C         39.47664         5.55859        -0.47024
C         39.42756         8.42638        -0.00356
C         38.18898        10.62459         0.06302
C         38.21469        12.03288         0.02897
C         39.42478         9.85973         0.47245
C         39.46057        12.75838         0.17672
C         38.23548        14.90069        -0.01792
C         38.23082        16.33560         0.01311
C         39.45727        14.18687         0.19180
C         39.44078        17.05389         0.28346
C         38.19530        19.17485         0.10254
C         39.41431        18.48422         0.32264
C         40.54415         1.96547         0.21714
C         40.59423         3.39521         0.10876
C         41.77816         4.11118         0.33327
C         40.70507         6.27366        -0.08154
C         40.68924         7.71944        -0.04751
C         41.81722         5.51729         0.28517
C         41.87603         8.46127        -0.01564
C         40.70934        10.60157         0.19588
C         40.69300        12.04930         0.26867
C         41.87414         9.87380         0.02717
C         41.88902        12.78610         0.42295
C         40.67910        14.90350         0.39916
C         40.66791        16.35646         0.48053
C         41.87732        14.17008         0.51244
C         41.83430        17.10290         0.73749
C         40.61432        19.19228         0.59336
C         41.79988        18.50225         0.79939
O         38.93376         5.99193        -1.77961
O         29.52237        18.25681        -1.59939
O         12.21852         4.96642        -1.78484
O         35.39515        16.73148        -2.04113
O          2.52414        12.21931         1.68699
O         30.87006         2.78740         1.97639
O         11.70172        10.40632         1.46106
O         25.30437        16.72531         1.13127
O          9.97726        13.48806         1.57672
O          7.08201        18.03010        -1.39982
O         28.46653         3.57112         2.47603
H         28.00787         2.81170         2.89105
O          5.90318        12.45449        -1.16885
H          6.67125        12.05883        -1.63298
O         14.79122         3.98881         1.57433
H         15.54462         4.53789         1.91517
O          8.46115        19.95114         1.46442
H          9.34551        20.29182         1.71043
O         36.91255         4.11583        -2.25128
H         37.66986         4.68661        -2.53281
O         30.99655         6.47535         2.24240
H         30.19176         6.91058         2.59723
O         15.86640         3.73450        -1.93749
H         16.62371         3.27923        -2.36136
O         27.75478        16.16114        -2.55418
H         27.80026        17.05978        -2.94678
O         22.09853         5.63996         2.12192
H         22.13670         6.57272         2.42714
O         10.64691        11.98181        -1.72801
H         11.49087        11.94058        -2.22661
O         33.29297        11.92517        -2.27765
H         34.10618        11.43624        -2.52684
O         23.37075        14.94810        -2.17329
H         22.52075        15.34669        -2.45993
O         18.45695        15.07287        -2.27937
H         17.73274        15.68429        -2.53402
O         17.07477         5.54331         1.90080
H         17.91442         5.14463         2.21919
O          3.73886         7.91680        -2.07495
H          4.39027         7.23724        -2.35536
O         24.77909         4.29970        -1.56765
H         24.73901         3.36945        -1.87853
O         14.59630        12.74282        -2.22777
H         15.44129        13.10126        -2.57634
O          7.39121        12.66346         2.20952
H          8.28386        13.00006         2.46241
O         12.27010         0.04330         0.19217
H         12.31648         0.28421         1.13998
O         39.34467         9.77194         1.95240
H         39.37921        10.69019         2.29668
O         33.27177        15.17296         1.15317
H         33.24902        14.27814         1.55822
O          4.93891        12.78378         2.32618
H          4.03041        12.80120         2.70679
O          4.77498         4.09080        -2.10582
H          4.77251         3.13760        -2.34016
O         29.39153         3.96855        -1.06821
H         28.57484         4.41396        -1.37965
O          8.49835         6.13725         1.86914
H          9.24701         6.66115         2.22683
O         26.98534         5.83703         2.39540
H         27.61201         5.16341         2.76601
O         24.66237        18.66340        -1.87066
H         24.61609        19.61229        -2.11299
O         32.05661        17.52619        -2.52482
H         31.25468        18.06941        -2.70010
O         22.08518        10.15713         2.07728
H         22.08027        11.12007         2.26760
O          8.69454        16.05372        -1.84890
H          8.27579        16.81151        -2.32102
H          0.23538         1.52939         0.58986
H          0.18176         3.97865         0.29434
H          2.38426         0.27424         0.42454
H          0.17585         5.86995        -0.19017
H          0.18181         8.30793        -0.11264
H          0.29407        10.24703        -0.88822
H          0.27452        12.68720        -0.70858
H          0.12759        14.52846         0.42357
H          0.17362        17.00738         0.57113
H          1.43511        19.12419         0.72404
H          4.81202         0.25666         0.06959
H          3.59381        20.33600         0.73267
H          7.28960         0.24558         0.01444
H          6.04614        20.29438         0.71603
H          9.75508         0.24095        -0.16170
H          8.62412        20.17206        -0.61099
H         12.22225         0.93686        -1.65502
H         11.02517        20.28639         0.29976
H         14.73922         0.25055        -0.18259
H         13.52196        20.28736         0.35539
H         17.24610         0.25943        -0.18907
H         15.99351        20.26491         0.41224
H         19.69358         0.29709        -0.29971
H         18.45009        20.25271         0.44297
H         22.14857         0.30613        -0.19437
H         20.89879        20.25951         0.43970
H         24.61496         0.31399        -0.05289
H         23.34303        20.32509         0.22547
H         27.04891         0.26931         0.20647
H         25.95469        20.22296         0.42744
H         29.49162         0.27817         0.18520
H         28.36643        19.84004         1.16065
H         32.03131         0.23496         0.17291
H         31.07321        20.10394         0.75555
H         34.47300         0.24261         0.06378
H         33.34392        20.17045         0.23146
H         36.90397         0.22522        -0.12015
H         35.74611        20.24381        -0.01022
H         39.33325         0.19729         0.14224
H         38.18127        20.27278         0.16877
H         41.47265         1.41977         0.43958
H         42.68990         3.56128         0.60730
H         42.75293         6.02207         0.56370
H         42.84328         7.94696        -0.09826
H         42.83772        10.38964        -0.09087
H         42.84926        12.26038         0.50966
H         42.83211        14.69115         0.66210
H         42.79583        16.59657         0.89493
H         40.59467        20.29072         0.63214
H         42.72705        19.05487         1.00651
