         260
 CSIRO Nanostructure Databank - Neutral Graphene Oxide Data Set
C         30.80781        30.98454         2.41426
C         30.92689        32.15201         2.82459
C         30.41938        36.44205         1.85738
C         30.27410        37.34001         1.00803
C         30.24444        40.42070         0.31177
C         30.23250        41.62246         0.58489
C         32.78331        28.77712         0.11938
C         31.86683        29.12765         0.87009
C         33.00999        31.31118         1.32903
C         31.90552        30.27391         1.78074
C         32.88839        32.78211         1.63746
C         31.79578        33.20784         2.38414
C         32.66705        35.94970         1.23321
C         31.55462        35.54308         1.94001
C         32.67777        37.40879         0.81769
C         31.38084        38.08159         0.39830
C         32.65056        40.34099         0.06125
C         31.37622        39.53217         0.05508
C         32.66048        41.69360         0.26338
C         31.43760        42.39861         1.03044
C         32.58417        44.41989         0.42478
C         31.51519        43.86975         0.71870
C         35.41097        27.48803        -1.07299
C         35.19656        28.80234        -0.72806
C         33.94560        29.49669        -0.40814
C         35.31230        31.55802         0.39620
C         34.02171        30.88079         0.28144
C         35.23973        33.02275         0.57943
C         33.96549        33.69788         1.09438
C         35.24163        35.97952         1.05485
C         33.98236        35.21598         1.37345
C         35.16688        37.29659         0.24185
C         33.93173        38.15360         0.51855
C         35.11012        40.37525         0.47987
C         33.95032        39.54513        -0.16714
C         35.19773        41.73810        -0.21439
C         33.85716        42.49306        -0.21493
C         34.68290        44.80412        -0.89000
C         33.78307        44.01389        -0.23181
C         35.18330        46.13264        -0.68521
C         37.80975        27.31599        -1.09394
C         36.51178        26.87019        -1.28314
C         37.80942        28.72032        -0.54438
C         36.49926        29.46395        -0.37562
C         37.80422        31.60353         0.04742
C         36.47773        30.99179        -0.40272
C         37.77753        33.10370         0.02456
C         36.55780        33.75314         0.65105
C         37.82374        36.01263         0.55789
C         36.55811        35.23058         0.88295
C         37.72267        37.41575        -0.04797
C         36.45262        38.11151         0.41540
C         37.72541        40.34740         0.36206
C         36.43922        39.60738         0.53165
C         37.72069        41.73591         0.20515
C         36.51337        42.43854        -0.14058
C         37.68218        44.66434        -0.13562
C         36.61659        43.74192        -0.61123
C         37.64759        46.19440        -0.25115
C         36.32131        46.62586        -0.71789
C         40.35774        24.55628        -1.49327
C         39.33361        25.33166        -1.52407
C         40.24899        27.23864        -0.43266
C         39.03970        26.62728        -1.19800
C         40.36611        28.74011        -0.70293
C         39.07147        29.53479        -0.83367
C         40.40643        31.65843        -0.20305
C         39.10654        30.88466        -0.09821
C         40.37368        33.14555        -0.35191
C         39.06702        33.84419        -0.12648
C         40.21385        36.09504        -0.37806
C         39.09540        35.29888         0.22895
C         40.22092        37.53642         0.00715
C         38.98866        38.20795         0.19038
C         40.22651        40.31062         0.63702
C         38.95325        39.60034         0.37406
C         40.22340        41.82438         0.54660
C         39.02605        42.43286        -0.17242
C         40.26090        44.72845        -0.24425
C         39.00180        43.95794         0.05058
C         40.26378        46.19736        -0.30609
C         38.96434        46.93900        -0.32609
C         40.25062        48.83401        -1.21327
C         39.19370        48.26677        -0.90825
C         42.90846        24.49534        -1.13403
C         41.58309        24.98068        -1.02137
C         42.89687        27.21922        -0.60751
C         41.59194        26.45199        -0.54784
C         42.83220        28.68337        -0.95655
C         41.54254        29.40868        -0.79222
C         42.71171        31.60292        -1.44054
C         41.63095        30.90664        -0.61706
C         42.72715        33.22022        -1.38002
C         41.50876        33.85139        -0.65393
C         42.75978        36.11988        -0.75313
C         41.45652        35.34840        -0.79387
C         42.71092        37.53366        -0.25280
C         41.44889        38.23337         0.10647
C         42.77071        40.29894         0.42961
C         41.50172        39.58798         0.47121
C         42.81245        41.78854         0.43205
C         41.53479        42.56759         0.46928
C         42.85161        44.73084         0.01150
C         41.55775        43.96521        -0.10049
C         42.86343        46.15566        -0.46935
C         41.53894        46.89299        -0.61439
C         42.91599        48.81762        -1.13991
C         41.57069        48.48223        -0.57419
C         43.97730        25.14308        -1.09367
C         45.37067        27.26128        -0.94457
C         44.20833        26.54249        -0.95412
C         45.32988        28.74932        -0.54161
C         44.10940        29.44081        -1.14350
C         45.32101        31.66971        -0.69918
C         44.10203        30.95593        -1.21667
C         45.24332        33.11249        -0.35656
C         44.09588        33.86749        -0.92983
C         45.20629        35.94651         0.11100
C         44.07105        35.36183        -0.63653
C         45.15982        37.34905         0.57316
C         43.91204        38.13044         0.39862
C         45.28337        40.22863         0.00892
C         43.95761        39.60878         0.38279
C         45.30425        41.73994         0.12006
C         44.00245        42.41804        -0.29443
C         45.35408        44.57369        -0.64649
C         44.11757        43.92831        -0.08459
C         45.39985        46.07439        -0.65352
C         44.21514        46.90563        -0.23979
C         43.97713        48.22359        -0.94299
C         47.83130        27.40924        -0.76344
C         46.73493        26.87560        -1.00579
C         47.98470        28.87980        -0.72736
C         46.63076        29.54774        -0.64744
C         47.69174        31.59240         0.25979
C         46.56205        30.88850        -0.40701
C         47.49643        33.01262         0.70620
C         46.32211        33.77171         0.20082
C         47.60869        35.90245         0.69742
C         46.34714        35.21427         0.37092
C         47.69681        37.28053         0.72687
C         46.45825        38.08394         0.80429
C         47.80934        40.27351         0.45540
C         46.49892        39.58627         0.65763
C         47.86710        41.55838        -0.00840
C         46.62965        42.40242        -0.09895
C         48.00865        44.44819        -1.15071
C         46.63066        43.76008        -0.77274
C         47.85255        45.86428        -0.56997
C         46.74117        46.45722        -0.72533
C         50.45007        29.04290         0.21502
C         49.21918        29.62343        -0.32579
C         50.00709        31.55086         1.30338
C         49.14541        31.13273         0.10802
C         49.68405        32.90328         1.97017
C         48.70571        33.74468         1.16582
C         49.92034        35.87569         1.64252
C         48.78197        35.10291         1.05567
C         50.22018        37.22324         0.99462
C         49.01027        38.00773         0.44202
C         50.37437        40.18518         0.75769
C         49.00531        39.47573         0.97837
C         50.45676        41.43877        -0.09910
C         49.16043        42.18242        -0.40849
C         50.50854        44.03724        -0.75393
C         49.20742        43.66670        -0.68130
C         51.16133        29.49580         1.12377
C         52.00474        31.45391         2.65856
C         51.13830        30.82077         1.69489
C         51.91434        32.73628         2.72488
C         50.96526        33.66642         2.40007
C         52.22259        35.92994         2.44217
C         50.99452        35.12444         2.43095
C         52.34352        37.13493         2.18694
C         51.54341        37.92601         1.23705
C         52.81352        40.06453         0.41516
C         51.65090        39.39890         1.03427
C         52.84890        41.28365         0.14914
C         51.79565        42.18267        -0.18846
C         51.66689        43.49987        -0.53793
O         46.33063        38.98930         1.95948
O         47.21219        31.87745         1.60976
O         34.20436        33.56912        -0.34817
O         38.20329        44.29673         1.19351
O         45.95757        42.38310         1.22982
O         40.96282        44.07915        -1.40926
O         45.05979        31.47693        -2.16456
O         38.13578        33.65436        -1.27444
O         31.30672        38.51464        -0.97811
O         38.44505        30.99514         1.19325
O         31.43992        34.46353         2.76391
O         36.80004        34.29657         1.97496
O         33.13194        30.41421         2.49918
O         42.46180        33.68769        -2.65557
O         41.45287        31.26726         0.78143
O         36.52423        38.72674         1.71957
O         33.40767        38.19155         1.85930
O         34.77846        35.84020         2.42580
O         44.54192        34.83603        -1.91595
O         49.90142        35.82498         3.09875
O         44.21139        37.51593         1.70145
O         35.71398        44.11170        -1.60774
O         42.36967        26.73750         0.66448
O         38.84163        35.78497         1.57746
O         33.57854        30.69236        -1.14207
O         45.72820        43.88536        -1.92688
O         34.42856        41.90439        -1.42286
O         43.66532        44.46708         1.17926
O         51.07398        40.26856         2.03795
O         37.19193        28.85508         0.75985
O         38.17621        46.86510         0.90214
O         40.48793        35.83171        -1.78637
O         49.83363        41.32283        -1.40760
O         42.35695        42.40752         1.65678
O         42.27537        46.33394        -1.77040
O         40.02872        41.21025         1.81918
O         48.88262        29.46835        -1.71612
O         51.30417        37.16826         0.01062
O         42.83905        37.24010        -1.68063
O         43.47503        28.82627        -2.28431
O         38.96162        29.84838        -2.24773
H         39.79486        30.26266        -2.56327
O         37.59604        37.24961        -1.49075
H         38.40042        36.80932        -1.84898
O         48.83752        39.31866         2.38989
H         48.73798        40.19405         2.81724
O         31.66537        42.19023         2.39126
H         30.96970        42.63257         2.91878
O         41.54026        48.87481         0.76841
H         41.58868        49.84990         0.83546
O         45.03797        28.74117         0.88567
H         45.76009        28.27707         1.36008
O         49.11179        38.06700        -0.98746
H         49.99622        37.72367        -1.25641
O         49.01310        32.62214         3.22269
H         49.59954        32.05679         3.76933
O         43.75309        42.13922        -1.69059
H         44.37568        42.69099        -2.22858
O         44.30099        47.17342         1.15548
H         45.19827        47.50412         1.36866
O         39.84463        27.15271         0.94350
H         40.65846        27.18690         1.49848
O         49.68589        31.88966        -1.00153
H         49.54994        31.36418        -1.82382
O         39.24109        42.14558        -1.57197
H         38.47446        42.46236        -2.09474
O         34.75116        40.68024         1.83465
H         34.93664        39.88678         2.38889
O         35.00253        36.85824        -1.12162
H         35.86090        36.92670        -1.60894
O         34.23030        39.36618        -1.55177
H         33.45530        38.94109        -1.97841
O         36.26511        31.42086        -1.76537
H         35.30753        31.31402        -1.98026
O         45.42727        39.93357        -1.41043
H         44.70309        40.40104        -1.89333
O         48.10608        44.53776        -2.54791
H         47.21723        44.75618        -2.90979
O         42.33858        31.25957        -2.77890
H         42.42138        32.11473        -3.29698
