         276
 CSIRO Nanostructure Databank - Neutral Graphene Oxide Data Set
C        -11.21323         0.45633         0.52506
C        -10.04185         1.31485         0.36376
C         -8.85481         0.69680        -0.36503
C         -7.52611         1.27874         0.22178
C         -6.31862         0.72449        -0.60759
C         -5.06744         1.46458        -0.16167
C         -3.79070         0.76688         0.14872
C         -2.54260         1.56247         0.07712
C         -1.39491         0.90626         0.81288
C         -0.03094         1.60806         0.59696
C          1.07548         0.73686         0.00988
C          2.38024         1.48645        -0.30519
C          3.64394         0.68605        -0.36199
C          4.91713         1.49274        -0.28565
C          6.19215         0.78939         0.07146
C          7.49278         1.36392        -0.38676
C          8.76469         0.69410        -0.00865
C         10.00623         1.42975        -0.22907
C         11.23945         0.66546        -0.15102
C        -10.02615         2.65858         0.60154
C         -8.88057         3.52649         0.08809
C         -7.53600         2.80339         0.29605
C         -6.29920         3.58521         0.02262
C         -5.06747         2.91935        -0.58554
C         -3.77373         3.66100        -0.32381
C         -2.53410         2.90893        -0.19139
C         -1.21090         3.58390        -0.53741
C         -0.00983         3.06396         0.28133
C          1.28854         3.78618         0.07126
C          2.59612         2.99936        -0.03335
C          3.55914         3.60370        -1.09565
C          4.90230         2.83269        -1.02342
C          6.22003         3.54432        -1.10302
C          7.50858         2.79927        -0.79289
C          8.70341         3.55285        -0.24228
C          9.98638         2.78832        -0.44277
C         -8.77635         4.94714         0.59288
C         -7.61685         5.72131         0.41193
C         -6.40463         5.05904        -0.17711
C         -5.10015         5.77764        -0.30825
C         -3.80830         5.03106        -0.32724
C         -2.58408         5.84522        -0.56536
C         -1.23356         5.12899        -0.64167
C         -0.02314         5.90219        -0.53536
C          1.26633         5.23153        -0.30085
C          2.54730         5.86377        -0.73661
C          3.68034         5.13900        -0.95043
C          4.97590         5.84152        -1.22900
C          6.27199         5.05726        -1.18684
C          7.54096         5.72914        -0.75981
C          8.68209         5.02988        -0.54206
C         -7.49400         7.06042         0.81936
C         -6.12623         7.66446         1.03619
C         -5.08240         7.24609         0.01037
C         -3.80962         8.01753        -0.05168
C         -2.48364         7.25348        -0.00538
C         -1.37570         8.14593        -0.66953
C         -0.03253         7.31845        -1.06363
C          1.25029         8.08054        -0.72113
C          2.56741         7.33324        -0.42028
C          3.72474         8.14491        -1.00691
C          5.04012         7.35290        -1.04696
C          6.32121         8.01281        -0.64791
C          7.58548         7.21263        -0.40137
C         -6.04440         9.13062         1.39290
C         -4.92448         9.86269         1.27156
C         -3.73111         9.47170         0.42628
C         -2.34855         9.81786         0.93767
C         -1.19789         9.33980         0.28012
C          0.04186         9.95122         0.49705
C          1.27757         9.46819        -0.11003
C          2.61675         9.98875         0.28376
C          3.77671         9.43242        -0.17196
C          5.06738         9.98167         0.21515
C          6.24089         9.34369         0.00933
C        -11.21947        -0.88042         0.27843
C         -9.97510        -1.65418         0.05767
C         -8.71064        -0.83434        -0.13807
C         -7.51609        -1.51071        -0.79606
C         -6.24473        -0.76994        -0.34171
C         -4.93644        -1.47666        -0.23382
C         -3.67700        -0.70606        -0.04519
C         -2.48860        -1.35825         0.09543
C         -1.32764        -0.63199         0.69343
C         -0.02859        -1.33752         0.92435
C          1.25693        -0.53517         0.85082
C          2.54641        -1.28545         0.86704
C          3.60002        -0.84606        -0.14676
C          4.98922        -1.49681         0.09502
C          6.15248        -0.63976         0.64609
C          7.50935        -1.36118         0.61293
C          8.75875        -0.65988         0.21035
C         10.00233        -1.42738         0.22818
C         11.23751        -0.67040         0.10030
C         -9.91957        -3.03502        -0.40040
C         -8.71658        -3.72552        -0.66685
C         -7.39135        -3.01749        -0.40922
C         -6.15555        -3.59875        -1.10715
C         -4.88096        -2.85878        -0.82722
C         -3.54647        -3.56198        -0.83187
C         -2.34679        -2.78866        -0.33998
C         -1.08714        -3.53846         0.02959
C          0.09295        -2.79559         0.56238
C          1.21336        -3.52331         1.26011
C          2.51577        -2.76130         1.27368
C          3.85914        -3.48577         1.40012
C          4.99339        -2.91116         0.56473
C          6.28037        -3.60393         0.78796
C          7.54003        -2.85690         0.67152
C          8.71184        -3.56043         0.02087
C          9.99681        -2.80206         0.24907
C         -8.64577        -5.09813        -0.87216
C         -7.46147        -5.83261        -1.44276
C         -6.03893        -5.10002        -1.46441
C         -4.91114        -5.76441        -0.67840
C         -3.51861        -5.11152        -0.82042
C         -2.56137        -5.62058         0.28487
C         -1.15014        -5.00918         0.25719
C         -0.04710        -5.70245         0.65954
C          1.09490        -5.04773         1.46021
C          2.47588        -5.77112         1.37986
C          3.79710        -5.02308         1.32012
C          5.05205        -5.71038         0.90486
C          6.27042        -5.00708         0.75074
C          7.54783        -5.72063         0.55035
C          8.69889        -5.04337         0.31264
C         -7.39083        -7.25807        -0.94463
C         -6.24388        -7.85425        -0.52348
C         -5.00047        -7.09322        -0.38538
C         -3.78992        -7.87274        -0.03067
C         -2.53250        -7.14719         0.25033
C         -1.21785        -7.79461        -0.09655
C         -0.17240        -7.21480         0.92832
C          1.16863        -7.96385         0.81001
C          2.45799        -7.24806         1.04672
C          3.74904        -7.91118         0.64415
C          5.04328        -7.16013         0.65869
C          6.23704        -7.74447        -0.10188
C          7.52688        -7.24245         0.57355
C         -6.18667        -9.29217        -0.22893
C         -5.02772        -9.98231        -0.23420
C         -3.73662        -9.27973        -0.59158
C         -2.46529        -9.98781        -0.20448
C         -1.26713        -9.31345        -0.04810
C         -0.02844       -10.00152        -0.00024
C          1.20542        -9.30372         0.14078
C          2.40801        -9.87220        -0.23048
C          3.67914        -9.07569        -0.33776
C          4.95633        -9.88125        -0.26017
C          6.13763        -9.25848        -0.13671
O         -0.90274         3.24190        -1.84555
O         -0.94328        -1.17003         2.03260
O          5.10283        -2.57533        -0.88691
O          7.80047        -2.07218         1.88350
O         -5.97099         5.52200        -1.48928
O         -4.71777         1.23980         1.22096
O          5.50927         1.67856         1.02142
O         -5.52853        -5.23703        -2.76722
O          0.10186         2.57859         1.67217
O         -5.78566        -1.21756         0.94896
O         -2.63002        -2.95948        -1.77720
O          1.69264        -2.88954         2.46670
O         -6.68473         3.25405         1.39625
O         -2.00022         5.67178        -1.83508
O         -9.00001         1.01243        -1.70826
O          3.25982        -5.55600         2.58425
O          4.64690        -8.04966         1.77506
O         -3.27583        -7.76807         1.33834
O          2.18154        -0.40004         1.96116
O          5.59474         2.91719        -2.28260
O          5.91939         7.98281        -2.04982
O          5.67966         5.47827        -2.45563
O         -8.98437        -1.32188         1.16385
O          1.83070        -8.03111         2.11366
O          7.70060         1.76796        -1.79613
O          2.92952         1.05224        -1.57999
O         -5.54520        -2.79497        -2.14943
O         -0.67961        -7.32933         2.21165
O         -4.71663         7.97528        -1.19132
O          0.04043        -3.13023        -0.84767
O          1.40503         4.80617         1.13848
O          1.27930         9.23861        -1.58475
O         -1.91694         8.66471        -1.88534
H         -1.65444         8.03353        -2.60378
O         -5.62798         6.96197         2.24195
H         -6.29707         7.05789         2.95288
O          5.78247        -0.49454         2.02866
H          6.21956        -1.21671         2.53926
O          7.60072        -7.74169         1.90963
H          6.71875        -7.66523         2.33361
O         -6.47115         0.90696        -2.00118
H         -7.44290         0.82541        -2.24262
O          6.22424        -7.24252        -1.45237
H          5.38440        -7.55480        -1.86976
O         -7.73618        -1.41495        -2.19907
H         -6.91479        -1.70873        -2.66521
O         -7.88020        -5.86961        -2.83399
H         -7.03052        -5.66465        -3.34132
O         -2.16664         7.04230         1.38846
H         -2.24605         7.89343         1.87465
O         -0.01549         7.21066        -2.50593
H          0.52100         7.96084        -2.85237
O          0.64936        -5.19700         2.81242
H          0.25918        -6.11610         2.91875
O         -7.43443         0.78375         1.55017
H         -6.63034         1.17252         1.96862
O         -5.19023         2.98190        -2.01793
H         -5.37161         3.92062        -2.26848
O          3.41974         8.42999        -2.38005
H          4.27448         8.62868        -2.82697
O          2.99191         3.41035        -2.39270
H          3.73342         3.40392        -3.03968
O          3.64653        -8.41574        -1.66189
H          3.40550        -9.09061        -2.33225
O          2.73341         7.35951         1.03009
H          2.34567         6.53803         1.41352
O          4.34962        -3.17966         2.72858
H          3.64592        -3.46702         3.35647
O         -1.79987         1.18060         2.17279
H         -1.41648         0.47936         2.75021
O          7.85854         7.32526         1.00273
H          8.58101         6.70933         1.24128
O          8.46667         3.53618         1.21844
H          9.31128         3.74562         1.66993
O         -9.04952         3.64342        -1.34829
H         -9.11031         2.70460        -1.71497
O         -0.82949        -7.40077        -1.42062
H         -1.51361        -6.79337        -1.80514
O         -3.82745        10.33678        -0.74318
H         -3.27904         9.91960        -1.45416
O          0.49344         0.30139        -1.23479
H          1.21882         0.22630        -1.89971
O          3.27745         3.12127         1.22157
H          2.62115         3.05897         1.94915
O         -3.68518        -9.13856        -2.04538
H         -3.82201       -10.02208        -2.44594
O         -3.00034        -5.58283        -2.07399
H         -3.75799        -5.45611        -2.71968
O          3.06092        -1.41249        -1.35619
H          3.67359        -1.23616        -2.10094
O         -7.14934        -3.23083         0.98967
H         -7.71868        -2.60509         1.50276
O         -3.11481        -5.17582         1.53352
H         -2.86948        -5.83987         2.21796
O          8.43914        -3.44707        -1.41887
H          9.07738        -4.01627        -1.89788
H         12.18816        -1.22130         0.15580
H         12.19138         1.20040        -0.28469
H         10.92809         3.33965        -0.58786
H          9.58026         5.59161        -0.22623
H          8.42774         7.69809        -0.97843
H          7.17961         9.78966         0.36795
H          5.06427        10.94950         0.74062
H          2.65211        10.89254         0.91290
H          0.10077        10.79004         1.20778
H         -2.24450        10.72328         1.55830
H         -4.92592        10.89957         1.64410
H         -6.90293         9.55475         1.93945
H         -8.37468         7.58637         1.22296
H         -9.64112         5.40268         1.10262
H        -10.90726         3.14965         1.04697
H        -12.16603         0.94903         0.77676
H        -12.16699        -1.43845         0.32365
H        -10.87153        -3.52407        -0.66527
H         -9.55184        -5.70536        -0.70227
H         -8.30851        -7.85962        -1.04592
H         -7.13909        -9.81392        -0.04667
H         -5.01898       -11.06612        -0.04005
H         -2.45934       -11.09120        -0.20024
H         -0.00855       -11.08500        -0.20005
H          2.40932       -10.89204        -0.64969
H          4.89868       -10.97964        -0.30784
H          7.07099        -9.84022        -0.09167
H          8.42164        -7.62771         0.02242
H          9.63145        -5.60735         0.14625
H         10.95217        -3.34926         0.21411
