         276
 CSIRO Nanostructure Databank - Neutral Graphene Oxide Data Set
C        -11.28446         0.67800         0.22523
C        -10.08437         1.49821         0.03985
C         -9.00713         0.95362        -0.88092
C         -7.58262         1.50643        -0.62685
C         -6.37315         0.60855        -0.50120
C         -5.06694         1.26648        -0.20625
C         -3.78939         0.55810        -0.55592
C         -2.52371         1.36847        -0.64520
C         -1.24320         0.69068        -1.13915
C          0.04492         1.44116        -0.79678
C          1.20685         0.76982        -0.53345
C          2.54583         1.32470        -0.97843
C          3.73993         0.83515        -0.13723
C          5.09707         1.53248        -0.25429
C          6.24361         0.57628        -0.68555
C          7.56211         1.30091        -0.85688
C          8.89382         0.61591        -0.70337
C         10.20050         1.46227        -0.79876
C         11.37035         0.62038        -0.30477
C         -9.99147         2.76329         0.53134
C         -8.67443         3.48463         0.72700
C         -7.48336         2.86874         0.00403
C         -6.20618         3.43247         0.45236
C         -4.89612         2.70610         0.30789
C         -3.88880         3.58018        -0.50255
C         -2.56969         2.85633        -0.82572
C         -1.26999         3.60310        -0.97513
C          0.05261         2.89802        -0.96785
C          1.22906         3.59412        -1.01456
C          2.50371         2.84233        -1.20293
C          3.79817         3.58608        -1.25987
C          5.08462         2.83530        -1.08780
C          6.39040         3.58421        -1.04167
C          7.38634         2.69754        -0.32775
C          9.55431         3.95023        -0.49926
C         10.22644         2.85755        -0.14170
C         -8.63903         4.99351         0.60381
C         -7.44354         5.64289         0.74701
C         -6.19150         4.83454         0.86724
C         -4.86082         5.56628         0.81246
C         -3.62850         4.82568         0.34950
C         -2.32953         5.56405         0.28056
C         -1.24349         5.07260        -0.64519
C          0.05243         5.81813        -0.68449
C          1.32710         5.11762        -1.16048
C          2.59070         5.65015        -0.40908
C          3.83408         5.08057        -1.08025
C          5.14040         5.80940        -0.99539
C          6.50854         5.11533        -1.17786
C          7.62930         5.70446        -0.26067
C          8.99441         5.13149        -0.73986
C         -7.33382         7.09394         0.82537
C         -6.13902         7.77417         0.78637
C         -4.87771         7.03832         0.53627
C         -3.56878         7.77119         0.50682
C         -2.29067         7.00324         0.82184
C         -1.11543         7.85070         0.26307
C          0.19407         7.02681         0.24553
C          1.43775         7.84433        -0.05714
C          2.61432         7.16860        -0.33610
C          3.88754         7.86271        -0.38255
C          5.10143         7.20543        -0.49140
C          6.37362         7.89521        -0.30659
C          7.56666         7.22184        -0.32995
C         -6.02209         9.21252         0.92614
C         -4.82713         9.87424         0.97423
C         -3.53281         9.21638         0.86393
C         -2.34591         9.84654         1.12266
C         -0.98315         9.15555         1.08595
C          0.14087        10.03734         0.48784
C          1.43346         9.28320         0.19439
C          2.60141         9.97861         0.12528
C          3.85934         9.37461        -0.44707
C          5.14218         9.99715         0.03796
C          6.30746         9.32229         0.01253
C        -11.34650        -0.65446         0.00276
C        -10.21877        -1.47572        -0.58873
C         -8.82560        -0.88100        -0.22136
C         -7.69867        -1.52264        -0.99093
C         -6.39597        -0.78493        -1.09207
C         -5.12479        -1.56297        -1.25888
C         -3.79511        -0.77682        -1.33991
C         -2.51853        -1.54439        -0.90484
C         -1.28805        -0.71567        -0.58027
C         -0.07883        -1.33990         0.02922
C          1.20441        -0.54732         0.21103
C          2.47690        -1.36942         0.06272
C          3.73966        -0.59888         0.28076
C          4.99360        -1.40023         0.40208
C          6.23835        -0.84590        -0.20148
C          7.55506        -1.50929         0.09811
C          8.86799        -0.81798        -0.22431
C         10.12697        -1.48044         0.20714
C         11.34053        -0.68157         0.06255
C         -9.99828        -2.81456         0.02660
C         -8.86919        -3.64106        -0.27274
C         -7.83648        -3.06406        -1.23806
C         -6.46767        -3.73902        -1.18208
C         -5.28852        -2.89446        -1.59473
C         -3.80620        -3.47282         0.38605
C         -2.55392        -2.86156        -0.21294
C         -1.34312        -3.42724         0.54524
C         -0.00952        -2.85072         0.00859
C          1.15579        -3.46630         0.80812
C          2.47451        -2.79700         0.47152
C          3.67348        -3.35782         1.21845
C          4.97685        -2.70654         0.79232
C          6.21422        -3.44170         1.33244
C          7.56968        -2.70341         1.01843
C          8.86952        -3.49326         0.98740
C         10.11996        -2.79872         0.56010
C         -8.74717        -4.91635         0.22911
C         -7.46260        -5.70476         0.30663
C         -6.27222        -5.01645        -0.38164
C         -4.99536        -5.65020         0.12252
C         -3.85636        -4.96363         0.37184
C         -2.60006        -5.64066         0.78854
C         -1.34528        -4.93672         0.36685
C         -0.06634        -5.68408         0.21078
C          1.23564        -4.92957         0.35145
C          2.49488        -5.67934         0.67993
C          3.69316        -4.92797         1.22831
C          4.99914        -5.67672         1.28471
C          6.22411        -4.89743         0.77969
C          7.54049        -5.65206         0.93461
C          8.76322        -4.95084         0.98479
C         -7.43850        -7.12322        -0.26105
C         -6.24626        -7.78997        -0.31130
C         -5.03276        -7.13946         0.27292
C         -3.75982        -7.94607         0.57844
C         -2.53086        -7.12469         0.94813
C         -1.16818        -7.73558         0.92412
C         -0.02700        -7.14189         0.49933
C          1.24825        -7.82883        -0.00470
C          2.47410        -7.13765         0.56924
C          3.72075        -7.88591         0.70452
C          4.98898        -7.18463         1.13505
C          6.33832        -7.91071         1.10835
C          7.52536        -7.03914         0.77793
C         -6.07648        -9.15545        -0.75930
C         -4.88564        -9.81431        -0.67002
C         -3.65226        -9.29913        -0.08803
C         -2.51345       -10.05805        -0.32493
C         -1.16793        -9.81431         0.16762
C          0.06068       -10.09778        -0.36320
C          1.29892        -9.36720         0.01694
C          2.52061        -9.96340        -0.02362
C          3.79676        -9.14621        -0.13856
C          5.11318        -9.86589         0.03914
C          6.24918        -9.26040         0.42089
O         -5.39093         5.17532         2.09099
O          4.33540         5.76147        -2.24827
O          2.61803        -2.41677        -0.92318
O          4.16270        -7.88613         2.12326
O          8.39818        -2.67326         2.17511
O         -4.23142         7.40456        -0.73165
O         -7.44289         2.68300        -1.46710
O         -2.30657        -2.77369        -1.65250
O         -9.35884         0.85044        -2.10633
O         -5.81942         0.54351         0.84950
O          6.03237        -3.42124         2.70737
O         -7.32594        -0.85068        -2.22895
O          3.11699         3.19101        -2.49668
O         -2.92476         0.75751         0.60675
O         -2.59406         4.60815         1.35559
O         -1.15025        -9.05713         1.35867
O         -2.67712        -6.24149         2.11131
O         -6.42352        -5.04456        -1.84403
O         -4.60416        -2.82254         1.03865
O         -0.92354         5.94587        -1.75982
O          2.17030        -5.12503        -0.73150
O          6.79096         0.82111        -1.99028
O         -1.10412        -0.76712         0.88678
O          3.50966         0.48165         1.25425
O          6.81759        -1.83243        -1.12931
O          8.98029        -0.48636        -1.65264
O          7.77895         2.88939         0.82200
O         -2.08422         3.24610        -2.15760
O          4.28490        -5.33478         2.49403
O         -0.90807        -5.36506        -0.95988
O         -4.78414        -7.74486         1.59536
O          5.91379         2.95703        -2.26443
O          3.48539        -2.95378         2.59460
H          4.37520        -3.15397         3.03180
O          1.27181        -7.55048        -1.45204
H          1.43238        -6.57517        -1.56609
O         -4.33938         2.60646         1.63350
H         -4.79860         1.86713         2.09033
O         -3.61244        -0.37856        -2.71348
H         -3.51285        -1.19326        -3.25078
O         -2.22226         6.92476         2.26073
H         -2.40186         5.97978         2.50539
O          3.79417         9.69357        -1.88793
H          3.09751         9.12752        -2.28386
O          3.83015        -8.68121        -1.52373
H          2.93719        -8.30604        -1.74268
O         10.40716         1.67991        -2.20821
H         10.17234         0.84330        -2.66871
O         -7.20390        -5.78016         1.73078
H         -6.55835        -6.49542         1.91992
O         -1.55275        -3.18539         1.93291
H         -1.45417        -2.22114         2.10398
O        -10.34330        -1.53006        -2.00570
H        -10.13311        -0.61910        -2.36186
O          0.24335        -3.21879        -1.34915
H         -0.58870        -3.14410        -1.87493
O          2.59879         5.09167         0.92069
H          1.87049         5.52310         1.44039
O          2.74777         0.69018        -2.26633
H          2.97867         1.39945        -2.91596
O          1.20773        -0.16357         1.61412
H          0.28278         0.07785         1.85327
O          6.01706        -4.79887        -0.65690
H          6.30667        -3.91201        -0.98031
O         -8.31313        -3.25360        -2.56684
H         -9.13368        -2.70576        -2.66890
O         -1.22669         0.60292        -2.57182
H         -1.40335         1.50329        -2.93069
O          6.65145        -8.23688         2.50418
H          5.78903        -8.29943         2.98096
O          0.36884         6.47271         1.58370
H          0.32518         7.24136         2.20914
O          0.90976        -3.39985         2.20813
H          1.76656        -3.23216         2.68333
O         -1.49051         8.23643        -1.06052
H         -0.92920         8.99780        -1.34560
O         -4.38344        -3.63627        -2.25854
H         -4.81613        -4.51205        -2.43744
O         -8.52181        -0.70747         1.10704
H         -9.27979        -0.31152         1.58654
O          6.94425         5.38761        -2.51422
H          6.20587         5.13869        -3.11525
O          7.35195         5.44187         1.11480
H          7.58995         4.50389         1.33075
O          5.42234         1.99314         1.07415
H          4.87144         1.47435         1.71477
O         -0.29126        10.62043        -0.75389
H         -1.09417        11.15546        -0.58274
O         -0.55518         8.89431         2.44363
H         -1.27395         8.37411         2.87968
O          1.50675         5.43175        -2.54495
H          0.61689         5.45343        -2.96352
O         -8.36695         3.19095         2.13756
H         -8.87334         3.81318         2.70090
O         -4.53053         3.95837        -1.71736
H         -3.83825         4.07639        -2.40905
H         12.28807        -1.17766         0.32708
H         12.35285         1.11597        -0.35496
H         10.91786         2.95715         0.71669
H          9.50626         5.77646        -1.47964
H          8.49697         7.78562        -0.15568
H          7.24408         9.82246         0.30344
H          5.12502        11.06225         0.31552
H          2.59969        11.06206         0.32341
H          0.35989        10.86683         1.21678
H         -2.36814        10.90039         1.44972
H         -4.82991        10.96409         1.12889
H         -6.95362         9.78799         1.03739
H         -8.26949         7.66424         0.93596
H         -9.57625         5.56195         0.50329
H        -10.85022         3.17903         1.08815
H        -12.16922         1.18514         0.64431
H        -12.29422        -1.17861         0.20005
H        -10.48904        -2.99332         0.99885
H         -9.57653        -5.31710         0.83372
H         -8.36177        -7.60039        -0.62299
H         -6.94466        -9.66995        -1.19623
H         -4.83572       -10.84050        -1.06577
H         -2.64452       -10.93198        -0.98526
H          0.13514       -10.78468        -1.22147
H          2.59008       -11.05523        -0.15336
H          5.16207       -10.89805        -0.34346
H          7.18265        -9.84604         0.42605
H          8.49254        -7.56405         0.69981
H          9.69702        -5.53068         0.89498
H         11.07352        -3.31542         0.75471
