         276
 CSIRO Nanostructure Databank - Neutral Graphene Oxide Data Set
C        -11.20030         0.61909        -0.18030
C         -9.98718         1.32429         0.39058
C         -8.75350         0.65146        -0.23642
C         -7.45454         1.20614         0.38011
C         -6.23718         0.59857        -0.37307
C         -4.94576         1.30830         0.04617
C         -3.70670         0.56410        -0.47720
C         -2.47679         1.34819        -0.06504
C         -1.21236         0.60040         0.08113
C         -0.05303         1.37538         0.70970
C          1.27325         0.67048         0.42674
C          2.54580         1.42008         0.73136
C          3.84428         0.69723         0.82535
C          5.06071         1.42748         0.27648
C          6.31681         0.71979         0.78263
C          7.53449         1.53542         0.40311
C          8.67968         0.89988        -0.30465
C          9.74032         1.74863        -0.98209
C         11.04711         0.98061        -0.84995
C         -9.89223         2.80410         0.03665
C         -8.69299         3.49540         0.07861
C         -7.43359         2.77985         0.58889
C         -6.22340         3.48091        -0.04244
C         -4.98682         2.74276        -0.44115
C         -3.65026         3.39020        -0.83260
C         -2.42124         2.69230        -0.27886
C         -1.16014         3.44539        -0.16163
C         -0.01632         2.83260         0.26588
C          1.23534         3.56532         0.73441
C          2.55439         2.86338         0.21123
C          3.80828         3.61565         0.70369
C          5.18362         2.97017         0.50692
C          6.33021         3.54940         1.41585
C          7.31930         3.04446         0.34388
C          8.63360         3.74467         0.13068
C          9.73018         3.14201        -0.38595
C         -8.61742         4.89702        -0.21448
C         -7.42887         5.68849        -0.14230
C         -6.13968         4.97162         0.19282
C         -4.93368         5.57327        -0.51766
C         -3.59104         4.86167        -0.38819
C         -2.39678         5.58535        -1.05210
C         -1.09487         4.87747        -0.60748
C          0.10869         5.69151        -0.21278
C          1.28051         5.04987         0.43554
C          2.39345         5.76929         0.75487
C          3.67096         5.06342         1.13658
C          4.95123         5.85652         1.33954
C          6.25954         5.10815         1.39234
C          7.47033         5.83208         0.89072
C          8.77097         5.06357         0.86395
C         -7.37206         7.06933        -0.26696
C         -6.09625         7.86061         0.00479
C         -4.87962         7.05489        -0.43553
C         -3.53561         7.60370        -0.20118
C         -2.38945         7.03544        -0.62441
C         -1.14210         7.82786        -0.79423
C          0.08386         7.17424        -0.28510
C          1.20949         7.89847        -0.02064
C          2.30908         7.28275         0.81790
C          3.64783         8.02233         0.72777
C          4.94822         7.34309         1.05151
C          6.28835         8.05533         0.77961
C          7.42828         7.11499         0.48579
C         -6.07809         9.24561        -0.65526
C         -5.02189        10.06161        -0.91408
C         -3.62110         9.77712        -0.58045
C         -2.45432        10.11258        -1.18927
C         -1.17155         9.33351        -0.99176
C          0.09826        10.01970        -0.68476
C          1.23110         9.33353        -0.30194
C          2.53726         9.96459        -0.35967
C          3.68932         9.30726        -0.02717
C          4.98205         9.81138        -0.46187
C          6.14943         9.17669        -0.22422
C        -11.18237        -0.70453        -0.45966
C        -10.02202        -1.56018        -0.19587
C         -8.73155        -0.87907        -0.12385
C         -7.52540        -1.54172        -0.19582
C         -6.21309        -0.89844        -0.11687
C         -5.03487        -1.59869        -0.02978
C         -3.76731        -0.83910         0.11982
C         -2.52828        -1.55695         0.51979
C         -1.23576        -0.88467         0.18432
C          0.03843        -1.65022         0.36390
C          1.29562        -0.81970         0.32764
C          2.60019        -1.55116         0.49320
C          3.89411        -0.80874         0.64907
C          5.22169        -1.56987         0.71274
C          6.38636        -0.71761         0.32745
C          7.51623        -1.29338        -0.12826
C          8.62328        -0.54143        -0.78467
C          9.95519        -1.24964        -0.63505
C         11.11615        -0.36963        -0.70580
C        -10.20144        -2.93738        -0.10127
C         -9.27057        -3.86240         0.53090
C         -7.29529        -2.99007        -0.44552
C         -6.33030        -3.60302         0.56026
C         -4.94463        -3.13551        -0.00663
C         -3.82769        -3.71564         0.83964
C         -2.56449        -2.99551         0.97655
C         -1.26996        -3.73360         1.26536
C          0.01113        -3.08772         0.77709
C          1.29566        -3.76333         1.15007
C          2.57813        -2.99110         0.90221
C          3.82945        -3.74695         0.57583
C          5.14346        -3.00955         0.25378
C          6.22633        -3.25211        -0.85135
C          7.54703        -2.79007        -0.10797
C          8.82887        -3.47513        -0.54430
C         10.01375        -2.62603        -0.56836
C         -8.92634        -5.14956         0.02049
C         -7.68168        -5.80496         0.18438
C         -6.47047        -5.11224         0.74172
C         -5.20695        -5.87495         0.99989
C         -3.89153        -5.14068         1.20015
C         -2.60797        -5.94748         1.43497
C         -1.22188        -5.25005         1.59073
C         -0.01100        -5.97579         1.00112
C          1.30457        -5.27047         1.23119
C          2.63177        -6.04427         0.96751
C          3.67794        -5.18120         0.26240
C          4.23311        -5.63515        -0.89994
C          6.66116        -4.51871        -1.60909
C          7.49409        -5.54329        -0.89516
C          8.78404        -4.85549        -0.66545
C         -7.49005        -7.12257        -0.29280
C         -6.31160        -7.85905        -0.12351
C         -5.16889        -7.38130         0.76589
C         -3.78821        -7.86426         0.27804
C         -2.60919        -7.47941         1.20077
C         -1.43182        -7.86786         0.25878
C         -0.08828        -7.27380         0.60429
C          1.18520        -8.14941         0.61678
C          2.31941        -7.25997         0.08145
C          3.39279        -7.90477        -0.71318
C          4.55969        -7.05907        -1.10699
C          5.95696        -7.62474        -1.16137
C          7.21314        -6.88041        -0.80221
C         -6.22901        -9.20102        -0.57413
C         -5.05809        -9.93239        -0.45861
C         -3.82906        -9.34104        -0.05801
C         -2.63165       -10.02513        -0.17617
C         -1.38115        -9.35648        -0.02878
C         -0.20896       -10.02176        -0.33533
C          1.09252        -9.42426        -0.23093
C          2.21989       -10.03247        -0.72665
C          3.55887        -9.39447        -0.44439
C          4.86235        -9.90281        -1.03192
C          5.96304        -9.12883        -1.14260
O          5.63955         5.60818         2.61498
O         -6.13448        -5.52931         2.10527
O          3.63132         3.98067         2.10270
O          1.29724        -4.43672         2.42444
O          3.41112        -1.24634        -0.67833
O         -3.30430        -0.77749         1.52085
O         -0.29797         1.36101         2.09884
O          1.34023         0.04118        -0.87501
O         -3.40054        -7.15008        -0.94348
O          1.47612        -8.54049         1.93356
O          0.03680        -2.74991        -0.63848
O         -0.04734         5.10940        -1.59964
O          1.75328         7.60770         2.20734
O          7.49122        -3.20125         1.23896
O         -1.91778        -3.02669         2.34763
O          8.71433         1.09368         1.14544
O          3.19189         1.19556         2.01547
O         -1.12359        -0.22307        -1.12812
O         -1.89773        -7.21674        -1.00048
O          4.23648         8.11215         2.08082
O          5.20223        -7.25009        -2.40234
O         -3.41963        -5.52331         2.56050
O          6.77428        -4.44372        -2.83057
O         -5.09438         6.35724        -1.71444
O         -3.49919         8.83686         0.47606
O         -7.46797        -3.50068        -1.55343
O          6.16791         3.32731        -0.64275
O          2.21654        -7.27628        -1.37018
O         -6.01658         3.08469        -1.41661
O         -1.00036         8.39682        -2.14562
O          5.65691        -2.67687         1.59545
O          3.50572        -3.36291         1.95096
O          2.25340         6.63660         3.14409
H          3.17794         6.95492         3.31751
O          6.70195         8.71761         2.00676
H          5.87464         8.93773         2.49666
O         -8.91780         0.96590        -1.62957
H         -8.06341         0.81068        -2.10202
O          8.30518        -0.54035        -2.20305
H          8.88359         0.13202        -2.63994
O         -2.46016         5.52943        -2.48852
H         -1.55218         5.73994        -2.81118
O          5.88844        -2.32125        -1.86415
H          6.08236        -2.75103        -2.73491
O          3.80330        -9.52371         0.98703
H          2.96627        -9.28169         1.49251
O          9.46247         1.88143        -2.40954
H          8.71253         2.50362        -2.52059
O         -2.60518        -8.18160         2.42138
H         -2.05551        -7.68956         3.06741
O         -7.41605         0.60331         1.69004
H         -6.63703         0.99221         2.15944
O          1.19557         3.47494         2.16529
H          0.66461         2.66538         2.43942
O         -4.75529        -3.63141        -1.34264
H         -5.58947        -3.52216        -1.85916
O         -3.25409         4.86281         1.01921
H         -4.06758         4.68208         1.55072
O         -5.88660         5.18569         1.62306
H         -5.98950         6.16002         1.80422
O          9.15149         4.76475         2.21677
H          8.43394         4.23941         2.63721
O         -5.38292        -8.04398         2.02852
H         -5.84530        -7.41067         2.62248
O          3.12595        -6.56389         2.19317
H          2.49050        -7.28377         2.48421
O          2.56432         2.84357        -1.22030
H          2.22166         1.98170        -1.54434
O         -8.84382        -3.47138         1.72742
H         -8.21406        -4.10459         2.13349
O         -4.86990         1.40236         1.48759
H         -4.20559         0.75767         1.83334
O          4.47267        -4.81812        -1.94519
H          4.76105        -5.39248        -2.69894
O          6.22019         0.63962         2.21537
H          7.12697         0.50458         2.56847
O        -10.03595         1.18189         1.82255
H         -9.10330         1.18653         2.15782
O          4.94743         1.20775        -1.13962
H          5.42049         1.93614        -1.60410
O         -3.59354         3.20102        -2.26814
H         -3.14161         3.98305        -2.68312
O         -5.99252         8.01189         1.45635
H         -5.17187         8.53335         1.62625
O         -0.97139        -5.35798         3.00965
H         -1.49518        -4.64765         3.44759
O         -6.45085        -2.96262         1.83776
H         -5.82032        -3.40503         2.45046
O         -6.37259         0.68159        -1.80579
H         -5.46829         0.54233        -2.19774
O         -3.75305         0.47308        -1.91638
H         -3.52355         1.36740        -2.28692
O         -7.40318         2.98628         2.01484
H         -7.04450         3.88944         2.19151
O          6.53146         3.11722         2.73436
H          5.85868         3.56469         3.29647
H         12.11060        -0.83905        -0.63272
H         11.98281         1.55918        -0.89956
H         10.67626         3.70834        -0.40684
H          9.58382         5.68491         0.41574
H          8.35522         7.58502         0.11823
H          7.08414         9.60162        -0.62058
H          4.97211        10.71309        -1.09400
H          2.60727        10.94642        -0.85337
H          0.15717        11.10950        -0.82967
H         -2.45413        10.84555        -2.01062
H         -5.22281        10.99372        -1.46707
H         -7.06290         9.60331        -1.00015
H         -8.29456         7.63335        -0.47675
H         -9.55755         5.41112        -0.47356
H        -10.80921         3.34231        -0.25785
H        -12.13283         1.18843        -0.32173
H        -12.10293        -1.20173        -0.80436
H        -11.13605        -3.36483        -0.49994
H         -9.60616        -5.57433        -0.73460
H         -8.33458        -7.61230        -0.80265
H         -7.11686        -9.66393        -1.02963
H         -5.04532       -10.98408        -0.78250
H         -2.63675       -11.09126        -0.45272
H         -0.27504       -11.07822        -0.64617
H          2.13881       -10.96314        -1.31197
H          4.97555       -10.99348        -1.13589
H          6.91859        -9.60736        -1.41336
H          7.98692        -7.52530        -0.35163
H          9.71621        -5.43404        -0.77713
H         10.99966        -3.12063        -0.58021
