         280
 CSIRO Nanostructure Databank - Neutral Graphene Oxide Data Set
C         30.01026        31.66953         0.69738
C         30.02123        32.87053         0.39235
C         30.12750        36.20929        -0.50611
C         30.20896        37.33637        -1.01676
C         30.45571        40.63490        -1.71839
C         30.53615        41.85688        -1.85589
C         32.54863        28.88044         1.36186
C         31.46185        29.48244         1.32603
C         32.45658        31.59596         0.67755
C         31.16518        30.90600         1.18878
C         32.43358        32.92399        -0.04347
C         31.08664        33.69633        -0.19622
C         32.52379        35.85366        -0.72439
C         31.14454        35.14522        -0.54421
C         32.61571        37.34091        -1.01939
C         31.37162        38.24165        -0.94941
C         32.80999        40.46583        -1.15392
C         31.46515        39.71286        -1.17424
C         32.79624        41.98514        -0.92671
C         31.63068        42.78491        -1.56269
C         32.69170        44.65461        -0.74381
C         31.57456        44.16673        -1.05070
C         35.30891        27.25709         1.24247
C         35.11185        28.64028         0.77552
C         33.75853        29.29904         0.54446
C         35.10449        31.57124         0.72094
C         33.78715        30.83307         0.78002
C         35.08623        32.91679         0.03600
C         33.74863        33.66230        -0.13463
C         35.11765        35.85089        -0.27045
C         33.72359        35.19614        -0.01928
C         35.20941        37.28206        -0.77045
C         33.96511        38.08354        -1.24362
C         35.10299        40.21085        -0.00021
C         34.02483        39.62483        -0.89502
C         35.04975        41.67839         0.45965
C         33.65826        42.59508         0.21446
C         34.66049        44.94638         0.70378
C         33.78630        44.15582         0.02133
C         35.23623        46.22768         0.40365
C         37.77751        27.07539         1.70093
C         36.35377        26.66291         1.49269
C         37.68915        28.68285         1.48391
C         36.42837        29.38303         0.96530
C         37.72766        31.43453         0.33523
C         36.48321        30.91636         1.07364
C         37.71834        32.80508        -0.26785
C         36.39621        33.56882        -0.32571
C         37.70253        35.77558        -0.61507
C         36.41301        35.06762        -0.26251
C         37.73229        37.19759        -0.10901
C         36.48970        38.00512        -0.46401
C         37.70840        40.08993         0.40115
C         36.40614        39.42440         0.06632
C         37.71943        41.55823         0.78281
C         36.39920        42.29820         0.91588
C         37.71827        44.42916         1.24924
C         36.54501        43.75778         1.19223
C         37.70836        46.64724         0.65388
C         36.32702        46.79915         0.29661
C         39.90635        24.51485        -0.16345
C         38.94057        25.09219         0.34416
C         40.08648        27.24366         0.48657
C         38.75206        26.50389         0.68634
C         40.25478        28.58467         1.17917
C         38.99007        29.41690         1.27856
C         40.30866        31.34603         0.11067
C         39.06152        30.92028         0.90296
C         40.33519        32.79506        -0.38105
C         39.03085        33.52697        -0.59035
C         40.32643        35.79956        -0.79006
C         38.99946        35.02924        -0.78105
C         40.30836        37.28372        -0.50296
C         39.02691        37.93058        -0.03184
C         40.22059        40.23923        -0.17961
C         38.90498        39.43479        -0.28757
C         40.20898        41.73297        -0.01567
C         39.02492        42.34986         0.66924
C         40.18455        44.70889         0.42166
C         39.03317        43.83492         0.89967
C         40.14716        46.21717         0.67540
C         38.91953        46.92655         0.08663
C         40.45047        48.56217        -0.89844
C         39.34120        48.02137        -0.72770
C         42.52224        24.49243        -0.71088
C         41.17350        25.06206        -0.62957
C         42.65929        27.10402         0.14098
C         41.27373        26.56724        -0.17992
C         42.80610        28.45510         0.78409
C         41.57152        29.27966         1.08595
C         42.82063        31.49399         0.77351
C         41.58778        30.67391         0.50440
C         42.78982        32.97628         0.48846
C         41.72276        33.47160        -0.50838
C         42.89260        35.88008        -0.45526
C         41.65190        35.04504        -0.68700
C         42.88709        37.44099        -0.47844
C         41.54733        38.01829        -0.03669
C         42.74073        40.34660         0.65926
C         41.49302        39.50632         0.19651
C         42.83323        41.74904         0.05914
C         41.53734        42.50433        -0.01858
C         42.77727        44.72406         0.49335
C         41.48529        44.02119         0.08692
C         42.74688        46.16058         0.95252
C         41.43939        46.95427         0.80354
C         42.94929        48.66748        -0.20518
C         41.52454        48.67362         0.12925
C         43.57686        25.11861        -0.87645
C         45.19542        27.23481        -0.51683
C         43.88002        26.52935        -0.58423
C         45.34539        28.53784         0.22934
C         44.16388        29.15532         0.99378
C         45.42330        31.47053         0.69556
C         44.12807        30.73126         0.95445
C         45.41174        32.96762         0.42709
C         44.10613        33.72620         0.46115
C         45.39281        35.95765         0.13856
C         44.08811        35.22378         0.16932
C         45.41241        37.44722        -0.11439
C         44.08734        38.09361         0.22056
C         45.35418        40.31760         0.82701
C         44.05649        39.53628         0.63304
C         45.38027        41.81648         0.63912
C         44.13676        42.52559         0.15007
C         45.37962        44.70815         0.64563
C         44.10005        44.03053         0.20977
C         45.33182        46.14205         1.12481
C         44.07159        46.98073         1.16025
C         43.96527        48.07010         0.13427
C         47.58739        27.20483        -1.31559
C         46.50493        26.72665        -0.95076
C         48.34147        28.33388        -0.84191
C         46.53987        29.18842         0.40933
C         47.91094        31.33564        -0.18106
C         46.62110        30.67313         0.27415
C         47.93202        32.88128        -0.22247
C         46.64257        33.65253        -0.11898
C         47.96500        35.92230         0.03062
C         46.66805        35.18274        -0.06376
C         47.96184        37.38628         0.38232
C         46.67701        38.16827         0.20236
C         47.82330        40.36131         0.21347
C         46.69060        39.52014         0.91876
C         47.94565        41.77004         0.86612
C         46.70210        42.54305         0.39626
C         48.06418        44.87879         0.06055
C         46.69742        44.03851         0.21888
C         47.76429        46.14106         0.81346
C         46.67886        46.70708         0.96764
C         50.21775        29.31962        -2.27438
C         49.13493        29.32582        -1.33866
C         50.46502        31.49838        -0.63970
C         49.24051        30.62440        -0.50865
C         50.49629        32.87177         0.03489
C         49.19564        33.62341         0.16810
C         50.52863        35.89984         0.32891
C         49.21460        35.13161         0.32865
C         50.49118        37.35640        -0.18550
C         49.24931        38.13704         0.18233
C         50.49595        40.38196        -0.08662
C         49.18358        39.63649        -0.02852
C         50.56219        41.75965         0.56243
C         49.26741        42.56160         0.67894
C         50.66392        44.51425         0.21288
C         49.28071        44.09457         0.49984
C         51.32151        29.89107        -2.30611
C         52.78192        31.83911        -1.25609
C         51.50338        31.30624        -1.85300
C         52.81619        32.90070        -0.61817
C         51.82834        33.61649         0.19809
C         52.90148        35.96598        -0.19780
C         51.84000        35.10761         0.35538
C         52.91171        37.20276        -0.26721
C         51.77463        38.09965        -0.52129
C         52.96021        40.36010         0.07316
C         51.88472        39.61168        -0.62952
C         53.00936        41.60129         0.16810
C         51.95064        42.48141         0.64870
C         51.71888        43.90677         0.41943
O         31.94127        31.73234         2.05804
O         46.17413        38.07549        -1.16563
O         46.68806        43.14268        -0.92161
O         43.95110        38.44070         1.61293
O         47.19065        33.27258        -1.41115
O         44.61715        35.86199         1.37147
O         41.01407        26.14800        -1.54844
O         47.81649        28.63074         0.43920
O         36.20631        37.57918        -1.81319
O         50.91107        37.53707        -1.56654
O         42.80249        27.21439         1.57268
O         41.29237        38.52805         1.28698
O         39.70307        32.87149        -1.69955
O         42.66159        45.08757         1.91815
O         44.96160        31.20698         2.03958
O         40.11898        41.13953        -1.33081
O         37.62730        31.57336        -1.07387
O         35.59917        32.93168        -1.34383
O         50.35359        30.50291         0.41381
O         33.81464        40.29123        -2.17251
O         47.35952        35.68841        -1.25938
O         38.34440        29.31166         2.59878
O         49.66202        40.23361        -1.27152
O         42.24852        42.02128        -1.21555
O         41.01306        30.51582        -0.84539
O         42.44518        32.49338         1.79733
O         32.58482        36.30743        -2.07787
O         44.26026        43.35663        -1.04673
O         44.27918        27.38750        -1.67093
O         40.33944        36.79980        -1.86294
O         45.35849        45.04534         2.07370
O         51.27836        32.85419         1.27189
O         51.28083        35.67548         1.55241
O         37.05170        41.66962         2.06695
O         40.62834        44.54929        -0.96783
O         34.37138        31.40423         1.97946
O         42.56679        35.37851        -1.77529
O         49.28594        43.52174         1.80694
O         45.22082        41.24252         1.95882
O         38.19209        35.45395        -1.92998
O         49.05370        34.25798         1.47575
O         38.42730        37.35865         1.15859
O         36.99260        39.34238         1.40126
O         36.00969        28.90521        -0.33937
O         30.92833        34.14049        -1.55577
O         31.29094        39.15701         0.16566
O         37.76934        45.75064         1.75343
O         35.38125        44.33965         1.74706
O         33.13260        33.03298        -1.29581
O         44.92247        33.57263         1.64656
O         35.88942        35.63715         0.97383
O         40.57587        46.80133         1.94690
O         34.64658        40.58901         1.32372
O         51.32967        41.90549         1.80244
O         48.78165        37.75183         1.50981
O         32.85701        42.56766        -2.27184
O         46.91240        30.89111        -1.15358
O         38.95309        27.34960        -0.44990
O         41.04769        28.86594         2.38041
O         39.46571        42.89206         1.94912
O         47.23668        40.53908        -1.08438
H         47.93646        40.78892        -1.73013
O         42.27070        32.96129        -1.73469
H         41.57086        33.00390        -2.42649
O         44.52462        28.83420         2.35517
H         43.73739        28.91998         2.93348
O         43.99425        47.59707         2.43621
H         44.15526        46.91103         3.11849
O         34.07327        38.10775        -2.67532
H         34.02494        37.18819        -3.01617
O         38.49737        39.47424        -1.68333
H         39.25758        39.26153        -2.26626
O         46.91252        39.20985         2.27858
H         46.71415        40.00971         2.81695
O         43.02484        37.85229        -1.84829
H         42.57942        37.17845        -2.41802
O         51.07314        32.18465        -2.86160
H         51.61058        32.05034        -3.66928
O         39.29821        31.65898         2.12068
H         38.72701        31.26868         2.82599
O         33.43728        29.15002        -0.82662
H         33.77608        28.29430        -1.16214
O         48.25236        45.15238        -1.30686
H         47.50264        45.67610        -1.65500
O         33.39718        35.46540         1.36647
H         34.22536        35.43128         1.90011
O         41.23627        49.57117         1.11795
H         40.30776        49.47704         1.41012
O         32.89089        42.38024         1.38584
H         33.42490        42.59717         2.17851
O         47.82684        41.57967         2.28160
H         48.17917        42.37992         2.73663
O         42.48645        40.64489         2.04211
H         42.56554        39.80356         2.54786
O         51.99887        39.92781        -1.99429
H         51.46137        39.28932        -2.51236
O         38.27874        26.79667         2.97566
H         37.79937        27.31820         3.65165
O         36.73752        31.27951         2.44079
H         35.89987        31.18136         2.95199
