         661
 CSIRO Nanostructure Databank - Neutral Graphene Oxide Data Set
C          5.96084        31.78924        -0.40433
C          5.97586        33.15100        -0.33919
C          8.37739        27.44377        -0.28365
C          8.35783        28.85505        -0.16833
C          7.16140        29.61679        -0.31625
C          8.35316        31.69964         0.19948
C          7.15840        31.01246        -0.16940
C          8.37692        33.13637         0.31032
C          7.17155        33.88035         0.00761
C          8.33960        35.99291         0.47614
C          7.17964        35.26823         0.07828
C          8.34384        37.39200         0.48056
C         10.94051        23.15560         0.25719
C         10.87289        24.56898         0.31467
C          9.65795        25.23144         0.04887
C         10.86163        27.44255         0.37703
C          9.51207        26.66416         0.19286
C         10.87747        28.84529        -0.16926
C          9.57786        29.56970         0.06664
C         10.79572        31.64302         0.59388
C          9.56646        30.94989         0.31389
C         10.68217        32.99147         1.26375
C          9.54053        33.81685         0.69836
C         10.67692        35.94643         1.26052
C          9.55024        35.25084         0.83018
C         10.55682        37.39634         1.66683
C          9.46088        38.14740         0.92422
C         10.61046        40.33853         1.15034
C          9.46325        39.53680         0.85172
C         10.63520        41.71377         0.97380
C         13.41040        18.85209        -0.00313
C         13.33436        20.24265         0.45767
C         12.15766        21.04218         0.17169
C         13.40838        23.13243         0.57168
C         12.15793        22.42333         0.39078
C         13.37437        24.59767         0.88366
C         12.10511        25.31269         0.49919
C         13.36385        27.43639         0.37425
C         12.12681        26.69088         0.36935
C         13.34524        28.88210         0.33499
C         12.11563        29.58791         0.25183
C         13.24895        31.79376         0.41059
C         12.01943        30.98525         0.48543
C         13.26646        33.17390         0.88799
C         12.00584        33.76131         1.38337
C         13.22355        36.02639         1.30991
C         11.96664        35.26333         1.49628
C         13.18987        37.43498         1.41833
C         11.89949        38.15037         1.67531
C         13.12848        40.38758         1.31419
C         11.87110        39.63816         1.50221
C         13.09507        41.75008         1.30931
C         11.85204        42.47920         1.08495
C         13.16863        44.56545         0.73239
C         11.91949        43.83618         0.80342
C         13.21817        45.89726         0.31363
C         15.82344        14.72190        -1.13177
C         15.82783        16.13433        -0.91714
C         14.63442        16.82647        -0.64531
C         15.90756        18.85177         0.05406
C         14.60003        18.18426        -0.20185
C         15.95538        20.30461         0.48013
C         14.66506        21.02453         0.68325
C         15.87420        23.20992         0.28022
C         14.64064        22.48440         0.50408
C         15.85181        24.62478         0.28724
C         14.62536        25.32976         0.47938
C         15.88364        27.45661         0.68900
C         14.59042        26.73354         0.43313
C         15.83237        28.93160         0.41684
C         14.58667        29.58951         0.38720
C         15.77971        31.82381         0.53176
C         14.57381        31.05496         0.25782
C         15.70001        33.19421         0.62627
C         14.44777        33.90259         0.83193
C         15.65868        36.08900         1.09251
C         14.45378        35.34577         1.08907
C         15.64350        37.49337         1.29449
C         14.38717        38.16509         1.36764
C         15.63236        40.31319         1.66473
C         14.41717        39.64390         1.09805
C         15.63216        41.78028         1.79214
C         14.33184        42.52983         1.55134
C         15.63350        44.58732         1.06012
C         14.39610        43.91911         1.09737
C         15.67978        45.93607         0.58370
C         14.46017        46.58685         0.19604
C         15.74841        48.55350        -0.53966
C         14.51487        47.90386        -0.31077
C         15.80222        49.89556        -0.98929
C         18.24856        10.43888        -1.38545
C         18.18688        11.82759        -1.35402
C         16.99203        12.58991        -1.47157
C         18.24350        14.78971        -1.73763
C         16.99653        13.99709        -1.37585
C         18.28747        16.16453        -1.09601
C         17.09131        16.83453        -0.88017
C         18.38120        18.96640        -0.41180
C         17.06311        18.34497        -0.77985
C         18.46914        20.34142         0.22410
C         17.16268        21.08890         0.17781
C         18.31561        23.20618        -0.30436
C         17.12263        22.48577         0.04560
C         18.24160        24.66269        -0.49748
C         17.05933        25.38758        -0.00026
C         18.30423        27.53616        -0.09550
C         17.09081        26.76715         0.09689
C         18.28791        28.96512         0.07737
C         17.04449        29.63413         0.32331
C         18.24783        31.85286         0.21624
C         17.08547        31.07672         0.73382
C         18.23822        33.23237         0.68853
C         16.95286        33.97524         0.53228
C         18.24183        36.13614         1.01704
C         16.94751        35.44313         0.76221
C         18.17621        37.60343         1.18995
C         16.86840        38.23607         1.43698
C         18.02414        40.41923         2.28171
C         16.82779        39.62058         1.75835
C         18.16691        41.68379         1.41164
C         16.88909        42.49701         1.52302
C         18.14738        44.59041         1.35200
C         16.86902        43.84704         1.30034
C         18.17602        46.01657         0.89460
C         16.92358        46.61437         0.37626
C         18.28418        48.40221        -0.74466
C         16.97094        47.85839        -0.23205
C         18.27201        49.89781        -0.92074
C         17.03730        50.59573        -1.10133
C         18.26880        52.69107        -1.45313
C         17.05663        51.98778        -1.36977
C         18.30660        54.10292        -1.81115
C         20.76192         6.16840        -1.35393
C         20.71671         7.54418        -1.28904
C         19.50457         8.28750        -1.33417
C         20.63966        10.38636        -0.75277
C         19.47290         9.70591        -1.15580
C         20.64127        11.84251        -0.59588
C         19.39565        12.60480        -0.97805
C         20.75344        14.71751        -1.08819
C         19.56888        13.97107        -1.61527
C         20.76843        16.14099        -1.04055
C         19.52963        16.85273        -0.98601
C         20.81523        18.94420        -0.71981
C         19.55948        18.26057        -0.68718
C         20.75151        20.39506        -0.85076
C         19.59160        21.12509        -0.39758
C         20.80547        23.25638        -0.68710
C         19.56019        22.52987        -0.52923
C         20.84116        24.74208        -0.98558
C         19.50867        25.45599        -0.76309
C         20.75389        27.59771        -0.35167
C         19.52475        26.88712        -0.39420
C         20.71754        29.01177        -0.21187
C         19.49956        29.70206        -0.07464
C         20.76602        31.92681         0.13619
C         19.48956        31.21244        -0.31929
C         20.76207        33.31225         0.55571
C         19.49317        33.99446         0.88190
C         20.74955        36.22964         0.97606
C         19.43386        35.47855         0.98552
C         20.70630        37.57943         1.67962
C         19.43202        38.34654         1.53756
C         20.59192        40.40426         2.29139
C         19.32841        39.58797         2.42319
C         20.60775        41.76360         2.08441
C         19.41227        42.48766         1.71976
C         20.63390        44.64027         1.51488
C         19.42785        43.86037         1.49258
C         20.67881        45.97896         1.05768
C         19.48427        46.63270         0.59216
C         20.74606        48.58525        -0.13303
C         19.51679        47.87980        -0.02814
C         20.75733        49.90541        -0.74427
C         19.48624        50.57929        -1.04973
C         20.76648        52.69471        -1.37111
C         19.47967        51.97683        -1.29386
C         20.77065        54.15412        -1.70737
C         19.46672        54.79631        -1.97612
C         20.75130        56.97009        -2.23934
C         19.49012        56.16848        -2.61338
C         20.81599        58.24901        -3.03708
C         23.30936         3.55880        -2.24751
C         22.09061         4.12523        -1.96006
C         23.28236         6.19047        -1.22803
C         22.01716         5.37014        -1.11885
C         23.25765         7.56096        -1.03551
C         21.99369         8.35200        -1.29814
C         23.17338        10.40449        -0.56282
C         21.89198         9.60404        -0.43370
C         23.13708        11.85009        -0.48534
C         21.92293        12.56996        -0.58849
C         23.17208        14.68803        -0.65276
C         21.94231        13.98783        -0.75587
C         23.25989        16.08961        -1.17620
C         21.99891        16.85155        -0.94335
C         23.30763        18.98165        -0.90160
C         22.04288        18.26388        -0.88168
C         23.33199        20.39648        -0.85662
C         22.08246        21.15904        -0.99360
C         23.29551        23.26390        -0.52314
C         22.04566        22.59346        -0.68910
C         23.25354        24.68256        -0.00389
C         22.02365        25.46775        -0.39322
C         23.26269        27.57008        -0.14760
C         22.02608        26.86377        -0.34223
C         23.29773        29.03586        -0.31711
C         21.97852        29.78901        -0.33161
C         23.16674        31.81826         0.66349
C         21.95659        31.22724         0.03079
C         23.25474        33.32755         0.57745
C         21.94680        34.02081         0.84711
C         23.12876        35.93180         1.89766
C         21.92493        35.34360         1.32450
C         23.11814        37.45210         2.27788
C         21.82449        38.18847         2.14814
C         23.10665        40.31756         2.01483
C         21.85331        39.63604         2.63640
C         23.16936        41.80230         2.32080
C         21.85919        42.54256         2.32860
C         23.17682        44.76583         1.98751
C         21.84824        44.02907         2.08529
C         23.17493        46.05707         1.25750
C         21.94855        46.66208         0.89820
C         23.19585        48.68041         0.19441
C         21.95293        47.97875         0.31503
C         23.16400        50.07676        -0.28641
C         21.94268        50.57393        -0.93727
C         23.25193        52.55090        -1.98334
C         21.91906        51.82042        -1.80564
C         23.25206        53.98832        -2.53332
C         22.00645        54.79886        -2.21718
C         23.27512        56.85247        -2.64976
C         22.01582        56.14479        -2.42962
C         23.26588        58.20383        -2.91258
C         22.02200        58.85214        -3.32932
C         23.40197        60.47318        -4.55501
C         22.13214        60.02341        -4.14287
C         24.53104         4.18710        -1.90624
C         25.74831         6.26365        -1.32996
C         24.54836         5.52937        -1.43784
C         25.75579         7.64947        -0.99624
C         24.46461         8.29291        -0.84598
C         25.64630        10.41963        -0.40620
C         24.38287         9.69926        -0.63291
C         25.61942        11.88267        -0.70987
C         24.34312        12.58195        -0.39586
C         25.61898        14.71691        -0.30037
C         24.36692        13.99547        -0.38571
C         25.69339        16.07903        -0.58214
C         24.51399        16.82621        -0.79997
C         25.79335        18.92326        -0.67740
C         24.55394        18.24696        -0.82466
C         25.85916        20.41866        -0.93633
C         24.53228        21.13509        -0.76043
C         25.84265        23.26048        -0.77354
C         24.50673        22.54841        -0.62474
C         25.80119        24.74827        -0.41150
C         24.52307        25.45594        -0.20624
C         25.72653        27.57801         0.24392
C         24.49852        26.84965        -0.06156
C         25.76512        28.94865         0.37518
C         24.60094        29.80861        -0.05903
C         25.68825        31.69241         1.40022
C         24.40721        31.01554         0.86627
C         25.65848        33.21132         1.30529
C         24.45987        33.93891         1.23713
C         25.64330        35.98305         1.89453
C         24.44492        35.29450         1.63836
C         25.65888        37.40167         2.41624
C         24.37097        38.14923         2.14848
C         25.62509        40.32593         1.95100
C         24.39614        39.62366         2.46926
C         25.60924        41.76132         1.83876
C         24.43651        42.50145         2.00956
C         25.70635        44.65790         1.61781
C         24.49856        44.00697         2.26174
C         25.64571        46.02607         1.23082
C         24.42281        46.71239         1.00557
C         25.67160        48.78214         0.26297
C         24.41709        48.07480         0.51150
C         25.71700        50.08811        -0.26704
C         24.45496        50.81230        -0.48866
C         25.75392        52.77636        -1.38496
C         24.50430        51.98336        -1.41447
C         25.74630        54.11078        -1.84173
C         24.52416        54.76838        -2.20764
C         25.77010        56.89013        -2.48116
C         24.52389        56.14140        -2.43465
C         25.76071        58.26271        -2.72281
C         24.50342        59.05990        -2.81434
C         24.56760        60.01338        -3.97631
C         26.97043         8.37321        -0.95890
C         28.20706        10.69237        -0.80705
C         27.02524         9.78142        -0.56399
C         28.12833        12.01660        -0.48678
C         26.79878        12.51966        -0.07154
C         28.22552        14.47027        -0.10844
C         26.81867        13.98321         0.10901
C         28.29591        15.89254        -0.63278
C         27.02343        16.72074        -0.75933
C         28.21865        18.88291        -0.31658
C         27.03667        18.20727        -0.60606
C         28.12027        20.26097         0.33637
C         26.97724        21.11760        -0.18380
C         28.16946        23.22022         0.37246
C         27.00719        22.49820        -0.11738
C         28.23856        24.61130         0.50770
C         27.04225        25.41072         0.13352
C         28.19914        27.51594         0.94241
C         26.89886        26.78981         0.67311
C         28.21091        28.95674         0.72818
C         27.00480        29.65360         0.63242
C         28.14348        31.77110         1.13993
C         26.98196        31.08595         0.87456
C         28.05690        33.08096         1.89985
C         26.84473        33.89133         1.59759
C         28.14063        36.00990         1.82222
C         26.88120        35.29597         1.78178
C         28.11783        37.44667         1.73042
C         26.87989        38.16591         1.93289
C         28.00238        40.30694         1.33092
C         26.80603        39.56998         1.78929
C         28.06381        41.76159         1.56773
C         26.88740        42.46826         1.69031
C         28.17710        44.53449         1.28647
C         26.90013        43.91425         1.57962
C         28.19755        45.99356         1.06481
C         26.91252        46.75156         1.01504
C         28.11467        48.70203         0.02768
C         26.90414        48.09716         0.40261
C         28.17915        50.09196        -0.28356
C         26.94503        50.76441        -0.51448
C         28.18857        52.82801        -1.11869
C         26.94415        52.12940        -0.99341
C         28.19575        54.16089        -1.54848
C         26.99246        54.83940        -1.87867
C         26.98953        56.19480        -2.25777
C         29.03241        13.21333        -0.59508
C         30.60771        14.71050         0.76276
C         29.36370        13.92450         0.74454
C         30.73526        15.97835         0.21362
C         29.58984        16.63863        -0.45913
C         30.71896        18.83388         0.22648
C         29.53201        18.20703        -0.34797
C         30.64032        20.23581         0.62398
C         29.43048        21.03502         0.15343
C         30.66620        23.18971         0.60561
C         29.37152        22.42106         0.84256
C         30.68708        24.62205         0.97279
C         29.42859        25.31139         0.93087
C         30.64850        27.44070         1.22893
C         29.47263        26.75776         1.00237
C         30.80722        28.87777         0.77824
C         29.49642        29.64901         0.64856
C         30.65780        31.75711         1.56106
C         29.46385        31.15224         0.92214
C         30.44228        33.01966         2.12962
C         29.33269        33.85834         1.86969
C         30.60700        36.00773         1.52090
C         29.39167        35.29490         1.78860
C         30.56780        37.41568         1.21833
C         29.32057        38.11949         1.38336
C         30.54082        40.32774         0.96890
C         29.27133        39.55838         1.06846
C         30.58839        41.66059         1.20085
C         29.40578        42.42588         1.77763
C         30.68373        44.65268         1.38798
C         29.37644        43.87141         1.33401
C         30.61932        45.99594         0.69422
C         29.40912        46.55789         0.42185
C         30.97028        49.00138         0.77959
C         29.19954        47.77099        -0.41483
C         30.74875        50.43792         0.36958
C         29.42389        50.84227        -0.30743
C         29.39584        52.15505        -0.72687
C         31.94179        16.71526         0.35766
C         33.18058        18.84832         0.54051
C         31.95292        18.13387         0.34967
C         33.22847        20.24623         0.65318
C         31.94756        20.96285         0.83472
C         33.20329        23.15735         0.90131
C         31.95134        22.44095         0.64233
C         33.16709        24.55561         1.10883
C         31.90005        25.26431         1.21830
C         33.16875        27.46150         1.63389
C         31.84962        26.69057         1.75475
C         33.18902        28.92875         1.44724
C         31.95568        29.66498         1.41688
C         33.24426        31.78079         1.80056
C         31.92731        31.05360         1.61915
C         33.30085        33.24783         1.53323
C         32.29168        34.06196         1.97374
C         33.01999        35.95694         0.53449
C         31.89563        35.29966         1.27228
C         32.84660        37.38117         0.12928
C         31.69328        38.10879         0.68794
C         32.98991        40.21707         0.24219
C         31.62321        39.55796         0.25161
C         33.10658        41.64043         0.61614
C         31.88130        42.39938         1.09485
C         33.02105        44.51832         0.45442
C         31.88269        43.85673         0.91508
C         33.02228        45.96523         0.29321
C         31.87065        46.69754         0.38828
C         31.81652        48.14272         0.13275
C         34.41380        21.00375         0.63025
C         35.62579        23.16925         0.68264
C         34.42464        22.43151         0.77334
C         35.61315        24.57569         0.77336
C         34.40488        25.25039         1.09942
C         35.58714        27.44776         0.79012
C         34.45558        26.70039         1.35534
C         35.54435        28.82997         0.73602
C         34.41547        29.57146         1.21423
C         35.75532        31.75113         0.92155
C         34.51989        31.02905         1.44087
C         35.88635        33.29181         1.00398
C         34.54522        33.99438         1.20261
C         35.63593        36.22555         0.34875
C         34.41247        35.44356         0.83023
C         35.32687        37.29703        -0.73032
C         34.03630        38.09291        -0.46130
C         35.34730        40.27195        -0.48336
C         34.09491        39.56320        -0.23695
C         35.35728        41.67919        -0.42099
C         34.24298        42.40468         0.05929
C         34.19203        43.79736         0.06345
C         36.79947        25.34141         0.47509
C         37.93480        27.48152        -0.03355
C         36.76827        26.72012         0.36753
C         37.85856        28.82808        -0.27720
C         36.49073        29.49561        -0.23700
C         37.63375        31.64750        -0.95294
C         36.68942        30.98156         0.04103
C         37.67767        33.17749        -0.89357
C         36.68199        33.94615        -0.12895
C         37.85869        36.02794        -0.79012
C         36.70772        35.31639        -0.24529
C         37.79388        37.46475        -0.88743
C         36.58394        38.14940        -0.81861
C         36.52110        39.55653        -0.80554
C         39.02768        29.61717        -0.59665
C         40.19212        31.72674        -1.12675
C         38.99069        30.96669        -0.84948
C         40.20639        33.06922        -1.32797
C         38.98851        33.90135        -1.23743
C         39.04698        35.33933        -0.99873
O         34.16657        31.33919         2.84154
O         28.36340        39.90640        -0.05281
O         14.85318        42.32059         2.91300
O         19.88805        13.64657        -3.08148
O         31.43930        33.56255         2.94325
O         37.92426        33.65774        -2.25118
O         27.77548        46.75923         2.24921
O         23.04430        36.38049         3.29944
O         26.74478        25.47312        -1.30630
O         31.35773        22.89603        -0.65898
O         24.11391        51.67514        -2.81448
O         31.14917        20.51297         1.97121
O         23.38017        31.03297         1.88885
O         29.66097        47.90207        -1.54518
O         16.94051        34.87972        -0.62320
O         27.30919        27.03604         2.03780
O         22.35991        44.82158         3.20539
O         13.85769        31.58409        -0.91649
O         26.38948        10.03165         0.76795
O         18.06273        45.69461         2.32877
O         26.62561        13.06351         1.26703
O         22.68301        29.47290        -1.59608
O         32.88939        41.89395         2.05365
O         12.08913        34.40057         2.70515
O         23.67976        51.05973         0.72693
O         10.03305        27.20470         1.49337
O         16.20202        19.18851         1.43005
O         21.29092        20.82215        -2.15982
O         32.97209        37.62795        -1.36500
O         18.81360        33.37291         2.08708
O         13.89949        20.53236         1.79743
O         18.96462        38.39911         0.16086
O         18.60107        25.13407        -1.87013
O         34.07847        27.07883         2.73162
O         34.63378        35.08290         2.22629
O         32.16411        35.04319        -0.20278
O         29.89283        17.46597        -1.57620
O         11.94447        39.01446         2.86613
O         25.74215        31.43037         2.79944
O         22.53490        42.18510         3.59018
O         29.62499        30.62984        -0.44148
O         37.00860        31.17094         1.44228
O         20.98623        53.66415        -0.31339
O         27.70424        16.14041        -1.93688
O         19.71690        12.45194         0.42399
O         31.17581        39.58563        -1.14529
H         31.68018        38.87878        -1.62095
O         23.24327        53.85977        -3.98761
H         23.86446        53.12651        -4.20290
O         13.39605        24.65719         2.37723
H         12.63126        24.13209         2.69868
O         17.27638        30.99487         2.20139
H         17.84950        31.74697         2.48538
O         19.31165        39.03397         3.77242
H         20.21895        39.12913         4.16909
O         31.59547        26.53967         3.18751
H         32.47684        26.44436         3.61985
O         16.06928        27.37524         2.15233
H         15.73740        26.50020         2.45000
O         29.26478        22.28807         2.27345
H         28.70288        21.50196         2.47412
O         36.68562        33.56967         2.17674
H         36.32483        33.04032         2.91982
O         21.53375        51.38409        -3.13962
H         22.33811        51.00197        -3.55733
O         37.13373        31.32919        -2.28227
H         37.46717        32.04699        -2.87792
O         31.30456        28.70155        -0.59623
H         30.98385        29.48155        -1.11041
O         19.45856        31.35535        -1.78581
H         20.28807        30.97022        -2.14262
O         23.00819        40.22288         0.57838
H         23.15271        39.28999         0.31138
O         17.67510        40.90928         3.58150
H         17.97816        40.23251         4.23342
O         21.94403        39.58446         4.07967
H         22.22339        40.48387         4.38406
O         10.08231        37.32864         3.04509
H         10.51648        38.07734         3.52354
O         18.40942        47.84336        -2.11055
H         17.70684        48.25458        -2.65824
O         29.15595        13.24613         1.94078
H         28.22676        12.90191         1.95672
O         20.62018        57.31903        -0.83506
H         21.45706        57.74022        -0.54696
O         30.34179        48.64844         1.92973
H         29.98651        49.46458         2.34518
O         24.75586        44.10958         3.68789
H         23.88882        43.96884         4.13896
O         25.81399        12.02302        -2.15653
H         24.96864        11.80159        -2.60165
O         21.78387         9.17489         0.95229
H         21.67362         9.97020         1.51430
O         23.34837        15.92091        -2.66427
H         23.57909        16.79918        -3.03943
O         27.90624        20.01583         1.76080
H         26.99681        19.66999         1.88139
O         14.60333        39.73003        -0.38296
H         15.45837        39.29335        -0.59396
O         22.14675         8.84735        -2.66429
H         22.15260         8.07561        -3.26841
O         29.52030        21.18123        -1.27329
H         30.27788        21.78437        -1.47968
O         35.18847        36.60840        -1.98566
H         34.24347        36.68246        -2.26317
O         21.14751        12.95365        -3.15141
H         21.78657        13.67587        -3.37738
O         18.28104        41.23375         0.03274
H         18.42543        42.01375        -0.54205
O         36.17190        36.93531         1.47789
H         36.12551        36.31512         2.24419
O         23.48145        33.53504        -0.86469
H         23.35384        34.48779        -1.06078
O         29.61388        42.45560         3.22826
H         30.29135        43.15413         3.40840
O         25.76619        37.30286         3.89265
H         24.99453        36.75881         4.18076
O         27.94485        32.70909         3.31266
H         27.07418        32.18074         3.37945
O         30.91272        44.89700         2.82364
H         30.25840        45.57006         3.11376
O         30.79608        51.18544         1.60250
H         30.57045        52.12049         1.41516
O         19.44334        56.01119        -4.04194
H         20.22886        55.49518        -4.32132
O         18.04298        15.12831        -3.14307
H         17.95683        14.29155        -3.64799
O         26.09898        23.20662        -2.21116
H         26.68037        23.97825        -2.42015
O         18.79238        20.15098         1.65441
H         18.01348        19.69364         2.05302
O         10.25515        32.65782         2.62129
H         10.61068        33.37115         3.20570
O         35.82132        29.26261        -1.50003
H         36.28924        29.78802        -2.19375
O         24.37117        59.85031        -1.56543
H         23.65411        60.50265        -1.71437
O         16.73758        18.79883        -2.14648
H         17.37090        18.36916        -2.76140
O         25.03315        30.40610        -1.31055
H         24.26628        30.36754        -1.93191
O         26.19813        20.50736        -2.35517
H         26.26388        21.47331        -2.57693
O         24.48618        39.73195         3.91848
H         25.11107        39.02427         4.22311
O         21.09451        24.81214        -2.42869
H         20.21544        24.71884        -2.86653
O         20.98134        36.58815        -0.43674
H         20.26024        37.22569        -0.67525
O         10.99739        28.67489        -1.62915
H         11.20098        29.55265        -2.01722
O         23.13327        24.49887         1.47812
H         23.17587        25.38825         1.89255
O         21.94605         4.91187         0.28676
H         22.78925         4.45295         0.48737
H          5.03481        31.25704        -0.66709
H          5.05939        33.72405        -0.54374
H          7.49225        26.91409        -0.66608
H          6.22062        29.09674        -0.55109
H          6.26170        35.82862        -0.15517
H          7.46268        37.92817         0.09446
H         10.01253        22.59039         0.08548
H          8.81534        24.65448        -0.36076
H          8.56380        40.04690         0.47109
H          9.71076        42.23600         0.68278
H         12.46742        18.35736        -0.28180
H         11.25567        20.54925        -0.22021
H         10.99477        44.38095         0.55897
H         12.29028        46.42023         0.03857
H         14.87584        14.17644        -1.00245
H         13.68072        16.28078        -0.70706
H         13.57875        48.42752        -0.55504
H         14.86286        50.43880        -1.16888
H         17.34157         9.86801        -1.63517
H         16.02573        12.06136        -1.48012
H         16.10421        52.52021        -1.50882
H         17.34750        54.59623        -2.03247
H         19.81878         5.60370        -1.43538
H         18.55528         7.75378        -1.49538
H         18.58161        56.74775        -2.31818
H         19.87358        58.71993        -3.35648
H         23.34729         2.58647        -2.76131
H         21.15927         3.60639        -2.22988
H         23.45949        61.24665        -5.33568
H         21.22156        60.48843        -4.54458
H         25.48173         3.67775        -2.11803
H         26.70440         5.75636        -1.52902
H         26.71675        58.80759        -2.75136
H         25.54544        60.36388        -4.33628
H         27.89614         7.86583        -1.27183
H         29.12714        10.24551        -1.21376
H         29.15063        54.70315        -1.61621
H         27.94052        56.74459        -2.31410
H         29.76950        13.28440        -1.41163
H         31.45052        14.29379         1.33350
H         31.59285        50.76782        -0.30031
H         30.32992        52.74048        -0.72823
H         32.84926        16.18233         0.67600
H         34.12034        18.27742         0.51931
H         33.97383        46.45604         0.04398
H         32.37889        48.52812        -0.73001
H         35.37548        20.48558         0.50048
H         36.57151        22.64742         0.47563
H         36.26152        42.22476        -0.73004
H         35.05701        44.36627        -0.30931
H         37.72111        24.79607         0.22307
H         38.89741        26.95404        -0.12371
H         38.73007        38.02607        -1.03365
H         37.45406        40.12485        -0.94576
H         40.00123        29.09962        -0.60325
H         41.14265        31.17135        -1.14987
H         41.16401        33.58505        -1.49396
H         39.99453        35.87900        -1.14378
