         424
 CSIRO Nanostructure Databank - Neutral Graphene Oxide Data Set
C          1.23312         2.11236         1.44410
C          1.18891         3.49957         1.09702
C          2.41750         1.43519         1.48880
C          2.33901         4.20545         0.82420
C          1.16317         6.45132         0.99039
C          1.20569         7.79993         1.04085
C          2.30092         5.66007         0.39461
C          2.40316         8.54284         0.68995
C          1.14573        10.71897         0.56794
C          1.12283        12.06425         0.61496
C          2.39874         9.96134         0.56648
C          2.40773        12.84168         0.77668
C          1.16554        15.12752         0.85370
C          1.24611        16.47813         0.96609
C          2.31343        14.31867         0.39592
C          2.47610        17.20864         0.74417
C          2.54027        18.61033         0.92520
C          3.65816         2.09633         1.15488
C          3.61029         3.52927         0.85441
C          4.83693         1.38573         1.09405
C          4.79734         4.24528         0.69050
C          3.62064         6.39047         0.55787
C          3.62025         7.82530         0.53773
C          4.82580         5.68276         0.57114
C          4.84963         8.53672         0.37743
C          3.60424        10.65345         0.36227
C          3.54443        12.12604         0.01169
C          4.84206         9.95886         0.27207
C          4.87461        12.82125         0.17097
C          3.61725        15.04257         0.18688
C          3.66320        16.50671         0.40868
C          4.90201        14.28864         0.50150
C          4.87829        17.18469         0.28236
C          3.74235        19.28683         0.79706
C          4.93920        18.59032         0.48337
C          6.07754         2.04283         0.55554
C          6.06612         3.51680         0.89114
C          7.38781         1.38529         0.88458
C          7.35644         4.27355         0.81048
C          6.08970         6.38335         0.42636
C          6.08363         7.82571         0.26051
C          7.30995         5.69856         0.44951
C          7.27844         8.53253         0.03999
C          6.07074        10.66972         0.06823
C          6.06744        12.12147         0.05503
C          7.28856         9.95515        -0.03786
C          7.33072        12.82393        -0.09050
C          6.13682        14.97968         0.00069
C          6.11079        16.48099        -0.23780
C          7.31057        14.28150        -0.14800
C          7.37791        17.09832         0.36348
C          6.18719        19.28362         0.34583
C          7.39647        18.60281         0.20612
C          8.58611         2.08366         0.76889
C          8.60350         3.51794         0.61877
C          9.85441         1.40419         0.73994
C          9.79400         4.22114         0.42014
C          8.55675         6.35675         0.18923
C          8.51899         7.76966        -0.34693
C          9.75148         5.66417         0.26173
C          9.80280         8.54039        -0.15217
C          8.53554        10.67228        -0.21889
C          8.51423        12.09823        -0.28330
C          9.78041         9.96903        -0.26194
C          9.77952        12.79902        -0.62424
C          8.55076        15.03861        -0.38649
C          8.59281        16.38847        -0.20837
C          9.79264        14.29882        -0.72559
C          9.80103        17.17291        -0.66916
C          8.62819        19.27111         0.09488
C          9.84731        18.59216        -0.14357
C         11.03333         2.08569         0.52181
C         11.04203         3.50934         0.35238
C         12.31941         1.31670         0.31749
C         12.26901         4.19919         0.09113
C         11.06731         6.39264         0.32667
C         11.00618         7.85065        -0.07494
C         12.18906         5.63725        -0.38877
C         12.25216         8.54276        -0.18270
C         11.03114        10.68126        -0.28415
C         11.06167        12.09872        -0.40102
C         12.26263         9.96138        -0.24838
C         12.27749        12.81858        -0.34910
C         11.07980        15.00638        -0.52187
C         11.08537        16.40875        -0.45817
C         12.28485        14.26718        -0.39090
C         12.30293        17.10619        -0.31221
C         11.06402        19.25390        -0.06415
C         12.31791        18.57719        -0.25382
C         13.54810         2.13905         0.73586
C         13.49747         3.54938         0.18252
C         14.83355         1.42996         0.42136
C         14.72756         4.24484        -0.08540
C         13.49382         6.38525        -0.25255
C         13.48134         7.80482        -0.24379
C         14.70712         5.67867        -0.25270
C         14.71835         8.52288        -0.27202
C         13.51266        10.67132        -0.21767
C         13.52197        12.11979        -0.20151
C         14.71217         9.94652        -0.18877
C         14.74797        12.83042        -0.10040
C         13.51088        14.97698        -0.23693
C         13.50344        16.38769        -0.19980
C         14.76224        14.25970        -0.10886
C         14.75902        17.16817         0.10468
C         13.50710        19.25535        -0.36463
C         14.77419        18.49250        -0.65654
C         15.99365         2.11204         0.08779
C         15.95677         3.55358        -0.11122
C         17.24186         1.43304        -0.04931
C         17.17449         4.25123        -0.40759
C         15.94984         6.38736        -0.40272
C         15.94817         7.81652        -0.39942
C         17.14900         5.65668        -0.57393
C         17.18425         8.54941        -0.52386
C         16.00359        10.63152         0.14549
C         16.00967        12.11706        -0.06901
C         17.22135         9.91948        -0.38278
C         17.22332        12.77540        -0.07560
C         15.98646        14.97151        -0.02750
C         16.02985        16.38058        -0.07940
C         17.26359        14.23344         0.28426
C         17.24609        17.08867        -0.14776
C         16.05003        19.24228        -0.38739
C         17.24469        18.54680        -0.23199
C         18.44024         2.12276        -0.30346
C         18.41400         3.54452        -0.48845
C         19.68972         1.43131        -0.35937
C         19.64752         4.26093        -0.72612
C         18.34365         6.36901        -1.15167
C         18.48560         7.77981        -0.57611
C         19.64122         5.62489        -0.98655
C         19.61191         8.56112        -1.26585
C         18.47123        10.65666        -0.46858
C         18.47645        12.06867        -0.25293
C         19.66867         9.98342        -0.76451
C         19.69109        12.78945        -0.37560
C         18.51280        14.95405        -0.14200
C         18.49625        16.38334        -0.21249
C         19.69912        14.23695        -0.32324
C         19.71027        17.09609        -0.33713
C         18.49465        19.23373        -0.21640
C         19.71941        18.54047        -0.27819
C         20.90473         2.11294        -0.48484
C         20.90584         3.54955        -0.64120
C         22.15138         1.41144        -0.51802
C         22.12086         4.26579        -0.67624
C         20.90205         6.33665        -1.41695
C         20.91929         7.82179        -1.12249
C         22.15336         5.64168        -0.95351
C         22.11335         8.51125        -1.04024
C         20.90452        10.67718        -0.79485
C         20.91039        12.09564        -0.63487
C         22.13338         9.96423        -0.97272
C         22.12985        12.81096        -0.83726
C         20.93839        14.93629        -0.54374
C         20.94869        16.38998        -0.46804
C         22.11475        14.23510        -0.81732
C         22.15576        17.09083        -0.49140
C         20.95853        19.22345        -0.30319
C         22.18224        18.52276        -0.40224
C         23.37719         2.08433        -0.48623
C         23.37242         3.56976        -0.20282
C         24.60737         1.41085        -0.53496
C         24.64330         4.26887        -0.60970
C         23.37322         6.37561        -0.91018
C         23.37565         7.79271        -1.01458
C         24.62611         5.67003        -0.79505
C         24.59990         8.51483        -1.03990
C         23.35398        10.67152        -1.06197
C         23.34831        12.10212        -1.05938
C         24.60420         9.94256        -1.12520
C         24.57080        12.83098        -1.28020
C         23.32998        15.01986        -1.26678
C         23.45246        16.31277        -0.46443
C         24.61728        14.22278        -1.28035
C         24.62860        17.12450        -0.93218
C         23.42869        19.20222        -0.43880
C         24.64378        18.52395        -0.73170
C         25.85453         2.10171        -0.52076
C         25.86024         3.55548        -0.59271
C         27.06942         1.40926        -0.50762
C         27.09694         4.25410        -0.66758
C         25.85126         6.39006        -0.90622
C         25.84770         7.81279        -1.02107
C         27.09046         5.68649        -0.81309
C         27.07707         8.53323        -1.07448
C         25.82788        10.63063        -1.26339
C         25.80097        12.07245        -1.54899
C         27.07560         9.95273        -1.21240
C         27.13091        12.83785        -1.59074
C         25.85244        14.94258        -1.39772
C         25.78498        16.42135        -1.44164
C         27.09583        14.29954        -1.42262
C         27.15434        17.19922        -1.41196
C         25.89800        19.21989        -0.69420
C         27.11742        18.56894        -0.85720
C         28.31959         2.09331        -0.51688
C         28.32690         3.53173        -0.58338
C         29.54450         1.40651        -0.45060
C         29.56405         4.22403        -0.53274
C         28.30047         6.41203        -0.83346
C         28.32047         7.82363        -0.99229
C         29.54255         5.69455        -0.50343
C         29.55044         8.55177        -1.03180
C         28.32316        10.68367        -1.18782
C         28.35827        12.09021        -1.27406
C         29.56069         9.95463        -1.05725
C         29.57582        12.82497        -1.11322
C         28.36147        15.00849        -1.33890
C         28.37920        16.41031        -1.28087
C         29.57959        14.23344        -1.22054
C         29.64010        17.25297        -1.36790
C         28.33323        19.16213        -0.41428
C         29.56638        18.52279        -0.54566
C         30.78457         2.09480        -0.45365
C         30.79013         3.53646        -0.50011
C         32.01110         1.40123        -0.39247
C         32.05213         4.24436        -0.55530
C         30.84120         6.42856        -0.59861
C         30.83827         7.79484        -1.24345
C         32.08909         5.65081        -0.68631
C         32.08291         8.54784        -0.85677
C         30.80305        10.68369        -0.90880
C         30.80772        12.09006        -0.88275
C         32.04120         9.95471        -0.71852
C         32.03557        12.80189        -0.61221
C         30.88151        14.93403        -1.17806
C         30.91810        16.45220        -1.16697
C         32.07560        14.21843        -0.68928
C         32.10048        17.10209        -0.57611
C         30.74984        19.12382        -0.08448
C         32.01041        18.49002        -0.13891
C         33.25394         2.08160        -0.39068
C         33.27845         3.52219        -0.50506
C         34.46744         1.38100        -0.26949
C         34.51563         4.22026        -0.54535
C         33.31204         6.35702        -0.78635
C         33.29200         7.82593        -0.75437
C         34.52185         5.63386        -0.71030
C         34.48590         8.53810        -0.47118
C         33.23186        10.65067        -0.36225
C         33.22815        12.09194        -0.29018
C         34.43436         9.91263        -0.20581
C         34.41949        12.81716        -0.00625
C         33.27252        14.93555        -0.45085
C         33.26767        16.38039        -0.40141
C         34.46256        14.22050        -0.09133
C         34.56861        17.13528        -0.26164
C         33.16172        19.13955         0.34336
C         34.42207        18.50314         0.37010
C         35.70928         2.06041        -0.20760
C         35.75187         3.48841        -0.35786
C         36.91388         1.35178         0.01643
C         36.99292         4.15308        -0.26043
C         35.80793         6.35825        -0.79501
C         35.79743         7.85527        -0.57575
C         37.08026         5.60085        -0.54093
C         37.01145         8.52612        -0.04513
C         35.63663        10.57897         0.32487
C         35.61993        12.08829         0.44652
C         36.93888         9.88563         0.29884
C         36.90651        12.78555         0.53804
C         35.68213        14.93391         0.26528
C         35.70226        16.33535         0.32213
C         36.89317        14.21230         0.55226
C         36.84957        17.02784         0.78053
C         35.55981        19.14699         0.83904
C         36.81305        18.46243         0.96846
C         38.12690         2.02462         0.20571
C         38.17213         3.45306         0.09589
C         39.32777         1.30653         0.54494
C         39.37965         4.15458         0.46301
C         38.30820         6.34986        -0.07226
C         38.21358         7.80557         0.20634
C         39.41741         5.57681         0.53164
C         39.32076         8.46544         0.74878
C         38.10845        10.60299         0.66258
C         38.10303        12.04356         0.75552
C         39.32388         9.88790         0.85532
C         39.32639        12.71370         1.00343
C         38.07435        14.91704         0.88239
C         38.04713        16.31200         1.06728
C         39.40883        14.22021         0.90719
C         39.23176        17.01657         1.51413
C         37.97112        19.13291         1.35588
C         39.18883        18.43763         1.61821
C         40.47241         1.97225         0.87448
C         40.51095         3.41001         0.90160
C         41.63997         4.09571         1.40034
C         40.52390         6.23579         1.08557
C         40.48076         7.72163         1.37485
C         41.62919         5.47763         1.52393
C         41.77253         8.46415         1.13669
C         40.55055        10.59058         1.10674
C         40.53376        12.00517         1.19474
C         41.77960         9.81753         1.11061
C         41.73763        12.77940         1.50529
C         40.35064        14.79305         1.97129
C         40.40686        16.31298         1.89253
C         41.68225        14.07885         1.85843
C         41.51698        17.03332         2.33332
C         40.34924        19.13687         2.04065
C         41.49568        18.44054         2.38034
O          2.81172        14.62650        -0.94619
O         38.13064         5.97387        -1.48609
O         35.93486         7.27103        -1.92678
O         35.36879        11.21989         1.62377
O         26.39325        17.00803        -2.63041
O          9.72201        13.48975        -1.94773
O          6.72449         3.92378         2.12439
O         31.21890        15.71068        -2.40091
O         26.45463        12.39877        -2.82245
O         30.19435         6.31207         0.69870
O          5.96812         1.99454        -0.91870
H          5.85917         1.05560        -1.17893
O         34.98578        17.39216        -1.65459
H         34.24692        17.86167        -2.09800
O          5.02577        14.37207         1.97903
H          4.26621        13.85331         2.35321
O         14.77258        18.16552        -2.08476
H         14.74236        19.00622        -2.58717
O         12.41686         0.95238        -1.06930
H         12.27009         1.75694        -1.60800
O         23.07852        15.42093        -2.64464
H         23.17257        14.63073        -3.21638
O         11.85101         5.61201        -1.80305
H         12.62143         5.26103        -2.29585
O          2.05167         5.62399        -1.05839
H          2.05834         6.55185        -1.37668
O         14.70586        17.51549         1.52184
H         14.84239        16.69409         2.03888
O         23.70289        15.93927         0.92831
H         23.64294        16.75308         1.47163
O         17.33370        14.22681         1.77510
H         16.76570        13.48878         2.08788
O         40.24014         7.79542         2.82828
H         40.20972         8.74590         3.07042
O         11.44857         6.38899         1.73750
H         10.71751         6.78819         2.25396
O          9.62866        17.31450        -2.12378
H          9.82345        16.44306        -2.53148
O          7.36678        16.85075         1.79479
H          7.00247        15.94959         1.94457
O         40.04029        14.51954        -0.37834
H         39.43806        14.21717        -1.08993
O         18.07289         6.46952        -2.58711
H         17.91962         5.56034        -2.92052
O          2.74123        12.82632         2.20024
H          2.75421        11.88943         2.49278
O         18.88201         7.58700         0.80672
H         18.98942         8.47067         1.21869
O          8.40544         7.59070        -1.80865
H          8.40650         8.48425        -2.21345
O         29.66210        17.72822        -2.74649
H         30.00503        16.98081        -3.28975
O         23.33376         3.68336         1.26940
H         24.12380         3.21637         1.61622
O         13.46592         2.24014         2.19515
H         14.20402         2.81073         2.49611
O          3.18930        12.15465        -1.40334
H          3.97423        11.87329        -1.91727
O         30.91970         7.52505        -2.68280
H         30.99668         8.38464        -3.14813
O          6.12072        16.69426        -1.67341
H          6.99426        16.40460        -2.01536
O         19.31581         8.66083        -2.69321
H         19.99995         9.23727        -3.09424
O         20.88442         6.25325        -2.90079
H         20.05918         6.72772        -3.17655
O         39.77961        14.46843         3.26738
H         40.34587        14.86900         3.95903
O         16.12379        10.49740         1.63011
H         16.02553         9.54263         1.83850
H          0.29044         1.59510         1.67230
H          0.20547         3.98736         1.05645
H          2.44362         0.36582         1.74409
H          0.23816         5.93310         1.28023
H          0.32787         8.35455         1.40298
H          0.19928        10.16462         0.49436
H          0.16219        12.59944         0.60790
H          0.23463        14.61391         1.13679
H          0.36603        17.04913         1.29884
H          1.62203        19.16190         1.17428
H          4.83832         0.30310         1.29576
H          3.77981        20.37590         0.94460
H          7.41429         0.28869         0.98697
H          6.18346        20.38482         0.35362
H          9.86934         0.30876         0.84346
H          8.65073        20.36662         0.21455
H         12.30139         0.36665         0.90537
H         11.07936        20.32629         0.18605
H         14.87566         0.34340         0.59105
H         13.51988        20.35669        -0.35003
H         17.26908         0.34300         0.09685
H         16.07426        20.33496        -0.52791
H         19.69332         0.33691        -0.24807
H         18.49758        20.33411        -0.21856
H         22.13833         0.31184        -0.57133
H         20.96870        20.32245        -0.25465
H         24.61506         0.31254        -0.61105
H         23.44553        20.29508        -0.31706
H         27.06394         0.30966        -0.47356
H         25.89575        20.26552        -0.35085
H         29.54429         0.30776        -0.39481
H         28.28853        20.14309         0.08387
H         32.00503         0.30258        -0.33330
H         30.68851        20.12439         0.37070
H         34.45140         0.28522        -0.17257
H         33.07216        20.16593         0.73048
H         36.88242         0.25549         0.10320
H         35.49602        20.19743         1.16261
H         39.29407         0.20753         0.56767
H         37.94497        20.22451         1.49265
H         41.37586         1.41689         1.16614
H         42.51308         3.51928         1.73872
H         42.49322         5.98673         1.97310
H         42.72154         7.90941         1.10592
H         42.73893        10.34909         1.03204
H         42.71151        12.26875         1.48819
H         42.61092        14.60111         2.13331
H         42.43101        16.51070         2.64920
H         40.32284        20.23391         2.10782
H         42.39237        18.98208         2.71265
