         276
 CSIRO Nanostructure Databank - Neutral Graphene Oxide Data Set
C        -11.16828         0.56805        -0.99134
C        -10.16315         1.42061        -0.22707
C         -8.82212         0.69986        -0.26850
C         -7.57178         1.49097        -0.12916
C         -6.30992         0.78274         0.26209
C         -5.02174         1.52654         0.28391
C         -3.75524         0.75503        -0.01587
C         -2.49216         1.60460        -0.24501
C         -1.19740         0.80791        -0.01439
C          0.09422         1.62584         0.03915
C          1.37913         0.90034         0.16298
C          2.64082         1.64456         0.52383
C          3.91711         0.86687         0.49828
C          5.07886         1.39299         1.29609
C          6.35777         0.60739         1.29959
C          7.68342         1.40045         1.34248
C          8.92378         0.59997         0.82915
C         10.16873         1.37267         0.53035
C         11.31791         0.66700        -0.10756
C        -10.06954         2.85721        -0.83426
C         -8.83355         3.67224        -0.43849
C         -7.67495         2.96555         0.24730
C         -6.35653         3.69799        -0.02706
C         -5.04451         3.00370         0.03707
C         -3.82328         3.68331         0.59391
C         -2.53436         2.91351         0.54249
C         -1.24503         3.66795         0.74809
C          0.09045         3.14031         0.22718
C          1.23551         3.69965         1.11970
C          2.51917         2.94245         1.27751
C          3.81474         3.70674         1.47396
C          5.17921         2.92351         1.51036
C          6.25476         3.48328         0.56885
C          7.55295         2.72017         0.53646
C          8.82444         3.45188         0.25877
C         10.03129         2.84589         0.37793
C         -8.75813         5.00941        -0.68602
C         -7.55953         5.83566        -0.47165
C         -6.44274         5.19117         0.34639
C         -5.05131         5.80658         0.07920
C         -3.86022         5.20700         0.84502
C         -2.52459         5.84389         0.39739
C         -1.27014         5.16049         0.83160
C          0.04653         5.84202         0.56135
C          1.18601         5.23991         1.37268
C          2.51238         6.00356         1.13356
C          3.79884         5.19096         1.17686
C          5.00822         5.79706         0.51677
C          6.22190         4.96019         0.25679
C          7.56407         5.70943         0.23267
C          8.70057         4.84013        -0.34141
C         -7.47953         7.11760        -0.92272
C         -6.17766         7.87173        -1.14779
C         -4.97228         7.18588        -0.49216
C         -3.75743         8.00932        -0.13484
C         -2.45340         7.27719        -0.00256
C         -1.17830         8.08921         0.17814
C          0.07684         7.24082         0.07051
C          1.18628         8.19631         0.44304
C          2.52573         7.48177         0.79750
C          3.83593         8.13995         0.35989
C          5.23736         7.33743         0.58412
C          6.28295         7.72529        -0.47648
C          7.40050         6.96713        -0.58392
C         -6.16391         9.37692        -0.96951
C         -5.01943        10.08214        -0.90128
C         -3.71427         9.46029        -0.53363
C         -2.40349         9.97826        -0.96015
C         -1.20680         9.32630        -0.69705
C          0.05921         9.79265        -1.14294
C          1.27179         9.23688        -0.67077
C          2.48325         9.62671        -1.22661
C          3.77805         9.23941        -0.69343
C          4.98950         9.58481        -1.46345
C          6.13810         8.89240        -1.33248
C        -11.02873        -0.76292        -1.20406
C         -9.89650        -1.54445        -0.72850
C         -8.81292        -0.79564         0.01021
C         -7.47147        -1.46681        -0.14494
C         -6.22962        -0.70097         0.06363
C         -5.05740        -1.37040         0.76890
C         -3.75116        -0.72866         0.23980
C         -2.45950        -1.56644         0.28678
C         -1.19171        -0.66427         0.34854
C          0.09226        -1.28314         0.86492
C          1.36582        -0.54947         0.56184
C          2.55519        -1.28960         0.02066
C          3.93822        -0.58450        -0.05161
C          4.94924        -1.48163         0.70269
C          6.33159        -0.83803         0.86673
C          7.55574        -1.52366         0.34202
C          8.80170        -0.73175         0.12958
C         10.05459        -1.45784        -0.30129
C         11.32093        -0.66843        -0.29103
C         -9.80087        -2.90831        -0.81303
C         -8.70207        -3.64853        -0.19385
C         -7.66517        -2.80941         0.51542
C         -6.38303        -3.55392         0.92374
C         -5.04020        -2.89680         0.51595
C         -3.82341        -3.53156         1.20730
C         -2.51762        -2.78725         1.20964
C         -1.18666        -3.51883         1.49018
C          0.10758        -2.79901         0.99726
C          1.28346        -3.53136         0.42184
C          2.45522        -2.77037        -0.14193
C          3.73821        -3.55970        -0.26738
C          5.01413        -2.86725         0.03045
C          6.29755        -3.65839         0.10235
C          7.24611        -2.68189        -0.58858
C          9.24076        -3.90029        -0.45631
C         10.14771        -2.95469        -0.20213
C         -8.67794        -5.00216        -0.10032
C         -7.65996        -5.84210         0.66246
C         -6.38586        -5.05159         1.09091
C         -5.04630        -5.83735         1.38693
C         -3.80352        -5.02799         1.01950
C         -2.49655        -5.74195         0.88903
C         -1.17732        -5.03643         1.12335
C          0.04242        -5.73632         0.58271
C          1.08118        -4.91407        -0.17666
C          2.39720        -5.68576        -0.40755
C          3.68375        -5.03352         0.01993
C          4.93337        -5.83461         0.30838
C          6.31387        -5.15024         0.12616
C          7.57446        -5.91902        -0.41541
C          8.66876        -4.98409        -0.97284
C         -7.29491        -7.03480        -0.17832
C         -6.25071        -7.94336         0.20555
C         -5.02597        -7.30471         0.90432
C         -3.72843        -8.04995         0.66191
C         -2.46644        -7.26572         0.78127
C         -1.10905        -7.85450         1.07952
C         -0.08148        -7.18364         0.17218
C          1.05074        -7.90007        -0.47123
C          2.34819        -7.15732        -0.62009
C          3.56149        -7.98990        -0.33308
C          4.77806        -7.35424         0.25005
C          6.39310        -7.97993        -1.20244
C          7.17887        -6.91786        -1.49980
C         -5.97976        -9.21670        -0.51083
C         -4.91591        -9.99159        -0.23789
C         -3.80102        -9.59012         0.72443
C         -2.51138       -10.33645         0.34048
C         -1.37955        -9.95536        -0.23410
C         -0.22353        -9.97487        -0.89539
C          1.11668        -9.44680        -0.37788
C          2.33142        -9.92538        -1.17080
C          3.53481        -9.28277        -1.09424
C          4.66156        -9.64779        -1.95461
C          5.86241        -9.01631        -2.08950
O          9.96919         0.69700         1.85002
O          5.96936        -8.09509         0.14033
O          2.18192        -1.89685        -1.26652
O          4.54595        -3.04656        -1.35417
O         -3.36873        -2.84045         2.39202
O         -8.04274         1.09326        -1.44889
O          5.49285         0.68840         2.48879
O         -2.99630        -7.65240        -0.53020
O          0.89631         1.25839        -1.14794
O          6.67282        -4.35029         1.30967
O         -0.19731        -5.66886         2.01264
O         -1.25851         4.35280         2.02746
O          5.27028         5.26582        -0.81989
O         -0.07350        -7.40488        -1.26487
O         -9.02391        -1.03974         1.45587
O          6.60766         2.65731        -0.58431
O          1.19879        -3.31897         1.84231
O         -4.70439         5.97671        -1.30069
O         -6.60456        -1.21983        -1.26619
O          2.47840        -6.25980        -1.75876
O          7.30796        -2.58028        -1.79998
O         -3.94945        -0.19816        -1.10993
O         -8.33530        -2.34327         1.76735
O          7.16602        -1.69282         1.72854
O          2.60914         7.05443         2.16208
O          4.12276        -5.29411         1.38843
O          3.86685         9.49242         0.77503
O         -5.98379        -8.05309         1.65973
O          3.57318         1.79369        -0.57970
O         -6.57396        -4.15646         2.22511
O          1.51966         2.93532         2.32738
O          3.84111        -7.99947         1.12519
O          3.86402         4.67912         2.54056
O         -1.01618        -0.20163        -1.03679
O         -3.35142         2.89937         1.74124
O         -2.33791         6.22505        -1.00057
O         -5.71564         1.19965         1.51896
O          0.31333         6.18038        -0.85064
O         -5.62358         3.41570        -1.24063
O         -3.21514        -5.24599        -0.28686
O         -0.83777        -8.49897         2.06921
O          9.16285        -0.80950        -1.27714
O         -6.73049         5.27865         1.70200
O         -0.93268         8.56225         1.56005
O          0.86930        -0.66207         1.93174
O         -3.85584         9.01263         0.89458
O          0.56479         8.83234         1.62392
O          5.69075         7.64742         1.83523
O         -5.97787         7.74694        -2.59271
H         -5.70158         6.81566        -2.75960
O          7.91391         1.76366         2.70374
H          8.84936         1.52605         2.92400
O         -7.89487         2.99284         1.66179
H         -7.62228         3.90354         1.99183
O         -4.88899        -3.18707        -0.88004
H         -5.36723        -2.50065        -1.40932
O         -1.09863        -3.47321         2.91866
H         -0.23888        -3.87638         3.17778
O         -5.27982        -1.13238         2.15421
H         -4.63370        -1.64776         2.69375
O          1.28564        -9.83199         0.98938
H          2.15993        -9.52340         1.31156
O          8.11567        -6.63527         0.69691
H          8.12533        -6.02774         1.46774
O         -4.15243       -10.01694         2.04561
H         -3.37931        -9.89137         2.63428
O          7.87562         6.05429         1.59399
H          7.17347         6.69823         1.91073
O          0.25620         3.70950        -1.07965
H          0.69892         3.04198        -1.65494
O         -4.00549         5.45340         2.23500
H         -3.57295         4.71959         2.72835
O         -2.48591         2.00539        -1.62162
H         -2.44604         1.19036        -2.16897
O          5.67602         3.16773         2.82570
H          6.01149         2.32146         3.20955
O         -2.34965        -2.25534        -0.97577
H         -2.43810        -1.58646        -1.69241
O        -10.10453         2.75038        -2.26253
H         -9.29115         2.26895        -2.53831
O          8.45269         4.64735        -1.74279
H          7.65143         4.08168        -1.83156
O         -4.95027        -5.95273         2.81869
H         -5.70419        -6.50305         3.12714
O         -8.28236        -6.29483         1.88865
H         -8.28456        -5.52935         2.50587
O          4.36153        -0.47169        -1.40309
H          3.80003        -1.06083        -1.96033
O          0.84872         5.44318         2.74263
H          1.60291         5.13387         3.29007
O        -10.60444         1.55106         1.13489
H        -10.44037         0.70723         1.60812
O          0.48357        -4.65096        -1.45582
H          0.50724        -5.48595        -1.98162
O          4.40128        -1.69834         2.01028
H          5.13068        -1.95655         2.61635
H         12.23829        -1.17544        -0.62649
H         12.24234         1.24617        -0.25286
H         10.94479         3.41796         0.14987
H          9.67117         5.38435        -0.24187
H          8.19371         7.24503        -1.29566
H          7.01130         9.17285        -1.94148
H          4.91848        10.42580        -2.16838
H          2.46830        10.26618        -2.12381
H          0.10365        10.63569        -1.84987
H         -2.38728        10.88753        -1.58167
H         -5.05288        11.18273        -0.93319
H         -7.11189         9.90842        -1.14319
H         -8.35104         7.54140        -1.45047
H         -9.61831         5.50681        -1.16460
H        -10.99026         3.41356        -0.52594
H        -12.07570         1.07126        -1.35806
H        -11.82035        -1.30818        -1.74197
H        -10.59543        -3.48690        -1.30848
H         -9.50938        -5.57326        -0.54330
H         -7.76482        -7.16172        -1.16453
H         -6.72839        -9.54864        -1.24601
H         -4.80806       -10.95405        -0.76040
H         -2.54338       -11.39032         0.68352
H         -0.26102       -10.18832        -1.98027
H          2.24233       -10.83936        -1.77911
H          4.44783       -10.46689        -2.66037
H          6.51264        -9.33576        -2.91918
H          7.53526        -6.76178        -2.52793
H          9.01364        -5.25285        -1.99153
H         11.08175        -3.29509         0.28700
