         485
 CSIRO Nanostructure Databank - Neutral Graphene Oxide Data Set
C         37.77620        50.95774        -1.22817
C         36.63613        51.69768        -0.92983
C         37.98969        53.69136        -0.67893
C         36.74189        53.06069        -0.63588
C         40.29145        49.49868        -1.93364
C         40.26426        50.79340        -1.41782
C         39.04986        51.57022        -1.24108
C         40.48650        53.63092        -1.22229
C         39.14419        52.96604        -0.98206
C         40.59886        55.07476        -0.82774
C         42.70558        49.21804        -1.47896
C         41.45400        48.71178        -1.93275
C         42.75213        50.55816        -1.02652
C         41.49101        51.30996        -0.71498
C         42.84452        53.39005        -0.34252
C         41.64942        52.80985        -0.73002
C         42.86273        54.79260         0.12407
C         41.71390        55.59779        -0.27204
C         45.12301        46.31803        -1.81218
C         43.95186        47.05615        -1.85812
C         45.15678        49.02881        -1.10370
C         43.92457        48.42727        -1.50469
C         45.16196        50.39828        -0.70128
C         43.98145        51.16775        -0.67418
C         45.35211        53.17271        -0.35845
C         44.05775        52.58935        -0.40268
C         44.90365        54.55116         1.63150
C         43.84748        55.33683         0.95835
C         45.28550        57.29320         1.22091
C         44.05185        56.77890         1.03325
C         47.65698        44.78166        -1.80884
C         47.62102        46.13661        -1.42535
C         46.36751        46.90873        -1.45517
C         47.67777        48.99204        -0.93131
C         46.36820        48.26795        -1.11059
C         47.59380        50.15407         0.02858
C         46.33357        50.96313        -0.01935
C         47.55118        52.92865         0.88913
C         46.43785        52.41477         0.16813
C         47.36671        54.04204         1.95178
C         46.20992        54.99871         1.66320
C         47.35014        56.95655         2.67012
C         46.52274        56.45858         1.41887
C         47.51144        58.45402         2.72668
C         50.03462        44.59024        -1.26757
C         48.82508        44.03044        -1.73172
C         50.04381        45.96447        -0.89190
C         48.83252        46.73518        -0.96906
C         49.99907        48.72590        -0.07678
C         48.86071        48.11983        -0.61011
C         50.02593        50.11505         0.28755
C         48.84426        50.85687         0.35782
C         49.94630        52.77067         1.47285
C         48.74774        52.16809         0.93854
C         49.96231        54.07618         1.92994
C         48.68586        54.76179         2.26815
C         49.95382        56.98380         2.48327
C         48.69351        56.21549         2.65834
C         49.95236        58.35783         2.47136
C         48.70060        59.08124         2.67618
C         52.46047        41.70855        -1.34589
C         51.27591        42.43139        -1.39684
C         52.47868        44.46690        -0.79372
C         51.25816        43.82043        -1.15465
C         52.47518        45.84734        -0.40424
C         51.24825        46.55195        -0.40102
C         52.50550        48.55909         0.60928
C         51.18204        47.88648         0.19953
C         52.55064        50.01179         0.76406
C         51.32829        50.84555         0.48439
C         52.48317        52.66094         1.86148
C         51.19427        51.98740         1.46498
C         52.42174        54.10622         2.12651
C         51.21541        54.76398         2.15902
C         52.46845        56.95797         2.36577
C         51.18553        56.26232         1.99384
C         52.43749        58.38181         2.43854
C         51.20022        59.10375         2.25572
C         52.27268        61.08257         1.14676
C         51.15948        60.36869         1.64749
C         54.97550        40.21998        -1.56246
C         54.95465        41.60639        -1.23702
C         53.69121        42.33583        -1.08292
C         54.93721        44.41517        -0.53194
C         53.70478        43.72976        -0.78673
C         54.95919        45.78064        -0.24401
C         53.72255        46.50538        -0.08276
C         54.98785        48.55377         0.56979
C         53.75807        47.85161         0.33366
C         54.98813        49.88386         1.02350
C         53.75930        50.63510         1.07767
C         54.96548        52.73851         1.58035
C         53.76668        52.04211         1.44281
C         54.95298        54.14662         1.90172
C         53.72144        54.78318         2.48803
C         54.91816        57.00944         2.25332
C         53.68620        56.28541         2.36058
C         54.91351        58.43512         2.30214
C         53.67393        59.04618         2.58089
C         54.83748        61.19006         1.06021
C         53.56518        60.91648         1.65142
C         54.90327        62.01440        -0.14133
C         57.41946        40.14912        -1.52126
C         56.19230        39.51424        -1.59987
C         57.42457        41.65411        -1.66302
C         56.16647        42.28202        -1.11092
C         57.39834        44.47121        -1.05051
C         56.23796        43.64377        -0.47786
C         57.43664        45.83800        -0.40492
C         56.22786        46.48757        -0.08901
C         57.46229        48.55827         0.40734
C         56.24331        47.85293         0.33792
C         57.49273        49.96113         0.81401
C         56.27973        50.44384         1.60811
C         57.56653        52.75676         1.68588
C         56.22457        51.98414         1.96277
C         57.34008        54.23672         1.37260
C         56.12594        54.90206         1.85601
C         57.36585        57.07817         1.90465
C         56.13873        56.32463         1.99701
C         57.34705        58.51443         1.92120
C         56.10570        59.20920         2.00641
C         57.28662        61.31325         1.13838
C         56.02212        60.55183         1.49815
C         57.33520        61.51451        -0.43476
C         56.01758        62.09605        -0.89559
C         59.77295        37.42398        -0.45401
C         58.64653        38.04433        -0.85597
C         59.97524        40.09844        -1.43942
C         58.68195        39.31173        -1.67326
C         59.96148        41.61199        -1.30229
C         58.69238        42.35017        -1.22791
C         59.93382        44.41195        -0.74035
C         58.69958        43.70024        -0.94623
C         59.92178        45.83768        -0.50536
C         58.67071        46.51379        -0.27882
C         59.90779        48.61953         0.04017
C         58.68142        47.90406         0.05292
C         59.87495        50.11880         0.01124
C         58.62713        50.70032         0.64154
C         59.86388        52.91726         0.92924
C         58.53963        52.20709         0.63674
C         59.89453        54.25867         1.24524
C         58.63781        55.04883         1.28554
C         59.87307        57.09481         2.21270
C         58.60660        56.42204         1.75108
C         59.86546        58.60070         1.96666
C         58.60604        59.24041         1.78465
C         59.74644        61.38160         1.79983
C         58.54993        60.64500         1.64759
C         59.82367        61.92618        -0.68106
C         58.50319        62.40241        -0.82282
C         59.41599        64.57071        -1.47074
C         58.33165        63.76604        -1.16402
C         62.28463        35.89904        -0.07010
C         62.28684        37.30855        -0.28628
C         61.09041        38.03206        -0.57355
C         62.38000        40.11558        -0.73062
C         61.16623        39.39682        -0.91470
C         62.38324        41.55983        -0.71793
C         61.18732        42.28286        -0.84012
C         62.40829        44.39877        -0.57947
C         61.16706        43.70327        -0.70328
C         62.41555        45.88743        -0.80583
C         61.12862        46.55013        -0.39255
C         62.38722        48.64891         0.11059
C         61.13303        47.94638        -0.11716
C         62.33246        50.02623         0.56220
C         61.14388        50.72059         0.57899
C         62.38379        52.84118         1.37925
C         61.06126        52.08761         1.12944
C         62.36350        54.30391         1.36941
C         61.13126        54.99068         1.45913
C         62.34645        57.08001         1.82914
C         61.12466        56.38766         1.71850
C         62.30296        58.46334         2.47340
C         61.08612        59.32895         1.98353
C         62.17973        61.73274         1.47026
C         61.03253        60.75074         1.80417
C         62.12329        62.50531         0.13563
C         60.91083        62.84649        -0.56310
C         61.88623        64.95250        -1.40813
C         60.74456        64.14711        -1.16663
C         61.86166        66.25188        -2.02413
C         64.72372        35.86115         0.09699
C         63.45675        35.20503         0.10751
C         64.75724        37.27034        -0.07191
C         63.54176        37.99345        -0.27550
C         64.81807        40.11372        -0.26566
C         63.57476        39.40909        -0.43328
C         64.82483        41.55475        -0.32960
C         63.61850        42.25946        -0.49422
C         64.87123        44.41081        -0.45414
C         63.61155        43.69779        -0.49832
C         64.85972        45.85885        -0.31550
C         63.66080        46.56720        -0.30016
C         64.86095        48.63869         0.35535
C         63.61123        47.95345         0.06382
C         64.86410        49.98874         0.72813
C         63.58281        50.62574         1.19596
C         64.84518        52.84423         1.18383
C         63.63129        52.13310         1.14944
C         64.84224        54.27308         1.36835
C         63.59799        54.99834         1.43027
C         64.85241        57.05658         2.11258
C         63.57016        56.40232         1.65648
C         64.81610        58.56168         1.98558
C         63.64771        59.13182         2.38602
C         64.66948        61.50101         0.96438
C         63.55314        61.19298         1.68474
C         64.59542        62.68061         0.09950
C         63.28902        63.19754        -0.20944
C         64.44252        65.17115        -1.39626
C         63.18979        64.47635        -0.93311
C         64.28885        66.09179        -2.61114
C         62.98511        66.84949        -2.51551
C         67.16016        33.02696         0.49323
C         65.97600        33.72443         0.39837
C         67.20633        35.82517         0.16059
C         65.95714        35.13322         0.23344
C         67.22963        37.25411         0.07449
C         66.00916        37.97626        -0.01377
C         67.25404        40.14856         0.33928
C         66.00477        39.40277        -0.04533
C         67.28839        41.57942        -0.13682
C         66.07855        42.26992        -0.30412
C         67.36083        44.43233        -0.67070
C         66.06683        43.70112        -0.43713
C         67.33721        45.85190        -0.16458
C         66.11743        46.54415        -0.08417
C         67.33128        48.62885         0.42031
C         66.09954        47.93911         0.21443
C         67.31554        50.00513         0.77644
C         66.09136        50.69959         0.89424
C         67.32598        52.83972         1.22868
C         66.08598        52.12493         1.12455
C         67.32411        54.27911         1.33359
C         66.09021        54.98401         1.44193
C         67.30916        57.12805         1.44916
C         66.10194        56.39338         1.60831
C         67.28906        58.56417         1.37672
C         66.05189        59.33548         1.69206
C         67.00623        61.20079         0.15620
C         65.95438        60.76429         1.15927
C         67.06858        62.74376         0.14673
C         65.75819        63.30669        -0.34615
C         66.91154        65.14598        -1.52759
C         65.75062        64.50832        -1.13980
C         66.89648        66.38755        -2.32900
C         65.56700        66.93385        -2.84661
C         66.71095        69.08129        -3.18659
C         65.54414        68.37830        -3.09684
C         69.64941        31.55100         0.86265
C         69.66877        32.92614         0.54089
C         68.41800        33.67969         0.37479
C         69.68927        35.77771        -0.09475
C         68.42186        35.07202         0.17452
C         69.72279        37.24812        -0.00028
C         68.49476        37.97326         0.05435
C         69.75666        40.08431         0.02343
C         68.52206        39.38001         0.07420
C         69.78036        41.52594        -0.01293
C         68.55041        42.27422        -0.13256
C         69.82423        44.38433        -0.15097
C         68.59373        43.67138        -0.26230
C         69.83806        45.81870        -0.09639
C         68.57255        46.53980        -0.00743
C         69.82275        48.67653         0.16000
C         68.56173        47.91965         0.24769
C         69.83134        50.12612         0.61824
C         68.57913        50.64270         1.30275
C         69.79110        52.86503         1.51116
C         68.53938        52.14527         1.28127
C         69.79251        54.31799         1.34192
C         68.56577        54.99990         1.30840
C         69.78045        57.16973         1.13962
C         68.54630        56.44312         1.25963
C         69.74107        58.58924         0.99584
C         68.46187        59.23163         1.00315
C         69.67299        61.38103         0.24616
C         68.37115        60.55316         0.35166
C         69.54619        62.80296         0.04766
C         68.29908        63.25273        -0.58559
C         69.42273        65.46854        -1.14278
C         68.24674        64.56896        -1.26104
C         69.30052        66.80870        -1.59519
C         68.06708        67.27717        -2.23991
C         69.29595        69.29091        -3.00101
C         67.98967        68.53108        -2.81969
C         69.16660        70.72006        -3.48113
C         72.05665        31.50087         1.05628
C         70.82222        30.84683         1.11221
C         72.10253        32.85529         0.73711
C         70.92705        33.57787         0.46894
C         72.19509        35.80996         0.33818
C         70.99892        35.00315         0.05753
C         72.17530        37.16157         0.23932
C         70.95721        37.92017         0.03517
C         72.20818        40.07999        -0.03247
C         70.98211        39.35514         0.00947
C         72.22554        41.45180        -0.04419
C         71.01764        42.21159        -0.03585
C         72.26378        44.37923         0.00064
C         71.04646        43.65506        -0.05803
C         72.27463        45.75796         0.01142
C         71.06938        46.50917        -0.00757
C         72.27046        48.69783         0.21405
C         71.10398        47.96200         0.10182
C         72.27864        50.07023         0.60486
C         71.12729        50.74226         0.94535
C         72.35393        52.95246         1.45389
C         71.11970        52.11872         1.50806
C         72.31405        54.27889         1.27931
C         71.05257        54.99659         0.86508
C         72.20991        57.24989         1.00439
C         71.03427        56.49266         1.08177
C         72.18258        58.64107         0.93481
C         70.96202        59.34891         0.85780
C         72.06286        61.62540         0.48211
C         70.93475        60.77053         0.66207
C         71.94579        62.96454         0.18613
C         70.66163        63.74182         0.36632
C         71.62180        65.97108        -0.26949
C         70.57327        65.05340        -0.42523
C         71.51625        67.28505        -0.73257
C         70.35332        67.72961        -1.36501
C         71.33638        70.07806        -1.74467
C         70.11053        69.19455        -1.69516
C         71.30745        71.23853        -2.42879
C         70.15409        71.60493        -3.23970
O         66.38155        60.52926         2.51899
O         53.65308        60.39496         2.96448
O         51.74241        51.77462         2.78986
O         60.23719        40.93393        -2.61186
O         57.77211        54.79513         0.11692
O         70.41404        35.24993        -1.26422
O         69.09068        60.58485        -0.88441
O         69.68933        49.81051        -0.79017
O         62.11313        58.20160         3.86418
O         63.66141        60.45657         2.85658
O         66.47333        66.20619        -3.74462
O         61.60043        52.22370         2.48640
O         51.61642        47.90644         1.59918
O         63.84813        65.62202        -0.15685
O         70.45225        52.31623         2.78590
O         48.74783        55.17643         3.70397
O         46.68098        50.09467         1.14775
O         55.96481        52.12346         3.35973
O         68.36312        63.28125        -2.04930
O         53.92687        54.49827         3.91949
H         54.39272        53.62780         3.98918
O         71.00965        54.82952        -0.60921
H         70.29666        55.41034        -0.95176
O         69.29007        69.70538        -0.60641
H         69.17918        70.66924        -0.74749
O         64.14075        65.21257        -3.75860
H         65.03574        65.13954        -4.17296
O         63.49902        50.28583         2.62815
H         62.73882        50.80794         2.99039
O         59.86395        56.88727         3.65382
H         60.70254        57.35825         3.99215
O         60.10494        60.60148        -0.70821
H         59.24949        60.10367        -0.79653
O         41.21613        51.00873         0.72433
H         41.24272        50.03262         0.82382
O         47.39438        56.61969         0.27023
H         47.01729        56.08249        -0.46046
O         58.29308        52.71325         2.92677
H         57.59357        52.51927         3.61769
O         68.70436        50.20041         2.69500
H         68.05881        50.70325         3.23504
O         51.11825        56.40748         0.51655
H         50.99755        57.36209         0.32157
O         66.52286        60.76120        -1.13021
H         67.24385        60.92382        -1.78108
O         62.12948        62.81887         2.48478
H         62.37845        62.40678         3.34257
O         57.49886        60.19304        -1.02735
H         57.21403        60.23810        -1.96420
O         70.55216        64.13323         1.78557
H         71.24533        64.80215         1.96707
O         56.41603        49.75077         2.87277
H         56.17556        50.44803         3.55291
O         44.53505        53.36538         2.16691
H         45.31330        52.98733         2.65199
O         64.84139        56.80336         3.56602
H         63.99916        57.19264         3.91880
O         47.96790        49.62531        -2.23307
H         48.02140        48.90967        -2.90174
O         40.63637        53.59770        -2.69740
H         41.44436        54.10568        -2.92243
O         46.59981        56.57985         3.83793
H         47.16446        55.95966         4.35662
O         59.84160        50.50705        -1.42881
H         59.33439        49.81434        -1.90468
O         62.47491        46.05008        -2.27921
H         61.69515        45.58497        -2.65236
O         47.02569        53.25588         3.13671
H         47.48473        53.67272         3.90303
O         70.05585        68.57753        -4.01487
H         69.50881        68.52520        -4.82578
O         67.47172        44.55230        -2.14353
H         66.67532        45.03337        -2.45637
O         45.60023        54.40876        -0.88505
H         44.75896        54.81409        -1.18209
O         58.70557        38.88804        -3.07016
H         59.09750        39.64272        -3.56963
O         57.14924        44.69440        -2.46423
H         57.23413        43.82008        -2.92232
O         67.18416        40.26283         1.82237
H         67.99905        40.72627         2.11291
O         51.58638        51.51175        -0.80899
H         51.51085        50.84014        -1.51934
O         67.28296        63.20312         1.50056
H         66.55050        62.88736         2.07197
O         58.07500        52.50990        -0.69919
H         58.67735        52.02893        -1.31781
O         56.56120        43.42540         0.93477
H         55.78618        42.99971         1.35808
O         57.34953        41.92275        -3.14065
H         56.60021        41.38803        -3.48450
O         57.13032        62.64020         1.66789
H         57.23070        62.60046         2.64055
O         59.62227        62.72405         1.90836
H         60.49815        63.13609         2.11541
H         37.68652        49.87992        -1.42434
H         35.65345        51.20616        -0.91052
H         38.05050        54.76915        -0.47314
H         35.84341        53.64238        -0.38779
H         39.37738        49.07029        -2.37103
H         39.76735        55.74754        -1.08510
H         41.39364        47.69335        -2.33937
H         41.71468        56.66972        -0.02933
H         45.07726        45.25286        -2.07568
H         43.02394        46.55010        -2.15892
H         45.42163        58.38402         1.17221
H         43.21531        57.46433         0.83501
H         46.74710        44.28927        -2.17714
H         46.59889        59.03670         2.92104
H         48.78817        42.97854        -2.04484
H         48.74462        60.17405         2.79149
H         52.42033        40.63126        -1.55269
H         50.34608        41.89892        -1.63602
H         52.10730        61.75489         0.29167
H         50.16965        60.72721         1.32309
H         54.04157        39.65468        -1.66861
H         53.96594        62.46429        -0.50209
H         56.14988        38.41922        -1.68893
H         55.97768        62.58350        -1.88176
H         59.69215        36.45459         0.05879
H         57.67590        37.55471        -0.69179
H         59.24667        65.58015        -1.86753
H         57.31579        64.17204        -1.26564
H         61.33498        35.34738        -0.07445
H         60.89809        66.77492        -2.11904
H         63.40456        34.11758         0.24941
H         62.89484        67.82762        -3.00958
H         67.11124        31.94021         0.63703
H         65.03381        33.16490         0.46341
H         66.65684        70.14898        -3.44427
H         64.58447        68.89766        -3.22622
H         68.69749        31.00792         0.92326
H         68.34261        70.99375        -4.15755
H         72.98669        30.94916         1.24974
H         70.77560        29.77654         1.35629
H         73.08002        33.35226         0.67251
H         73.12618        35.30909         0.63839
H         73.10871        37.70804         0.43036
H         73.16423        39.54220        -0.07080
H         73.19559        41.96356        -0.08485
H         73.22328        43.84870         0.05232
H         73.24082        46.27650         0.06567
H         73.24721        48.20706         0.10613
H         73.25659        50.54943         0.75639
H         73.31146        52.45851         1.68160
H         73.25495        54.84693         1.31067
H         73.18630        56.74783         0.97018
H         73.13350        59.18653         0.86616
H         73.07018        61.18100         0.47998
H         72.84565        63.50860        -0.14152
H         72.53085        65.67011         0.27306
H         72.35190        67.97370        -0.54909
H         72.20092        69.84608        -1.10581
H         72.15975        71.93243        -2.39288
H         70.11713        72.61704        -3.66873
