         232
 CSIRO Nanostructure Databank - Neutral Graphene Oxide Data Set
C        -11.15550         0.65137        -0.53437
C         -9.95616         1.46711        -0.34365
C         -8.69289         0.71018        -0.23316
C         -7.48013         1.43442         0.27355
C         -6.33510         0.65728         0.87075
C         -5.07096         1.40794         0.98573
C         -3.86339         0.70244         0.88686
C         -2.57310         1.37344         1.06707
C         -1.23016         0.65276         1.09929
C         -0.02592         1.37948         0.59047
C          1.24035         0.60174         0.38744
C          2.34012         1.26381        -0.12740
C          3.70082         0.75242         0.18224
C          5.02480         1.48850        -0.03423
C          6.33500         0.69886        -0.14290
C          7.54089         1.44955        -0.53437
C          8.74393         0.70617        -0.87599
C         10.05387         1.38819        -0.42584
C         11.05913         0.43934         0.10567
C         -9.93042         2.84075        -0.24924
C         -8.71433         3.59201         0.05192
C         -7.56522         2.90444         0.42349
C         -6.32762         3.62764         0.75462
C         -5.07959         2.80926         0.72486
C         -3.90240         3.29114         0.17216
C         -2.59535         2.86692         0.61504
C         -1.36564         3.58593         0.19226
C         -0.21546         2.69087        -0.19461
C          1.08744         3.41807        -0.41070
C          2.12771         2.58104        -0.69070
C          4.04049         3.72023        -0.73952
C          5.16593         2.91870        -0.36207
C          6.37806         3.54329        -0.10863
C          7.60215         2.81870        -0.24605
C          8.85279         3.54281        -0.06968
C         10.01017         2.79044         0.02607
C         -8.66727         5.04082        -0.06225
C         -7.54286         5.81534         0.16893
C         -6.29325         5.15840         0.65916
C         -4.96979         5.88802         0.53818
C         -3.83066         5.33861        -0.06531
C         -2.52735         5.78850         0.21369
C         -1.34043         4.94525        -0.01328
C         -0.06480         5.68266        -0.29947
C          1.20213         4.91012        -0.54771
C          2.47857         5.59850         0.00222
C          3.84138         5.02278        -0.38925
C          5.04639         5.70052         0.14180
C          6.36236         4.97755         0.19586
C          7.63613         5.72609         0.17164
C          8.80706         4.99628         0.11210
C         -7.48895         7.23470        -0.20323
C         -6.61915         8.14307         0.35309
C         -4.78740         7.18962         1.02950
C         -3.58139         7.92341         0.86253
C         -2.40770         7.11610         0.67745
C         -1.06981         7.61404         0.84832
C          0.03639         7.06421         0.25011
C          1.28531         7.82243         0.14731
C          2.45692         7.12298        -0.04232
C          3.74663         7.86607        -0.13720
C          5.07170         7.16499        -0.08367
C          6.34949         7.87511         0.18033
C          7.53889         7.17848         0.25530
C         -6.15488         9.42299        -0.15549
C         -4.90027         9.94139         0.04522
C         -3.63762         9.36033         0.53672
C         -2.50915        10.14226         0.27658
C         -1.13279         9.76090         0.51916
C          0.01592        10.06351        -0.16687
C          1.27515         9.31506         0.05956
C          2.46602         9.99014         0.04887
C          3.74398         9.27592         0.41463
C          5.05522         9.98158         0.14044
C          6.24575         9.32913         0.14124
C        -11.13261        -0.68545        -0.77295
C         -9.83754        -1.45469        -1.00021
C         -8.76472        -0.78636        -0.15944
C         -7.51861        -1.54593         0.12132
C         -6.28031        -0.84939         0.61972
C         -4.97854        -1.42342         0.20201
C         -3.92031        -0.55129         0.20695
C         -2.10150        -1.59402         0.35043
C         -1.17619        -0.86889         1.27666
C          0.13977        -1.54649         1.00445
C          1.32215        -0.81294         0.69700
C          2.52955        -1.49656         0.46077
C          3.79556        -0.76035         0.49428
C          5.07416        -1.50034         0.22779
C          6.31378        -0.79015        -0.16131
C          7.48397        -1.46667        -0.36514
C          8.61834        -0.79776        -1.12700
C         10.01283        -1.51761        -1.07431
C         10.97197        -0.88953        -0.08218
C         -9.85243        -2.95786        -0.74309
C         -8.66590        -3.66763        -0.60408
C         -7.39960        -2.88395        -0.54394
C         -6.06398        -3.56736        -0.63553
C         -4.81005        -2.77645        -0.38622
C         -3.48589        -3.55705        -0.24888
C         -2.28972        -2.94463         0.39013
C         -1.14855        -3.72927         0.86541
C          0.11670        -2.98219         1.01088
C          1.32882        -3.65996         0.84241
C          2.53320        -2.98046         0.25081
C          3.84211        -3.60851         0.74168
C          5.03626        -2.86684         0.17812
C          6.20706        -3.62164        -0.42966
C          7.53372        -2.94703        -0.02154
C          8.72251        -3.67380        -0.60469
C          9.86995        -3.01579        -0.92410
C         -8.52103        -5.08437        -0.65837
C         -7.26087        -5.74447        -0.63878
C         -6.02187        -5.03698        -0.57783
C         -4.76682        -5.72210        -0.41748
C         -3.55913        -5.03264        -0.22934
C         -2.22444        -5.73897        -0.24034
C         -1.14575        -5.08989         0.62034
C          0.06424        -5.87317         0.87424
C          1.39883        -5.09721         1.01229
C          2.66267        -5.80358         0.72789
C          3.83349        -5.11637         0.52417
C          5.09402        -5.79405         0.25664
C          6.21774        -5.10403        -0.12416
C          7.45006        -5.80722        -0.46877
C          8.62045        -5.11325        -0.70912
C         -7.20743        -7.17748        -0.67822
C         -6.00623        -7.87441        -0.60880
C         -4.75487        -7.17788        -0.44300
C         -3.55471        -7.90002        -0.29861
C         -2.30117        -7.23632        -0.06164
C         -1.13623        -7.96166         0.15046
C          0.12234        -7.30006         0.47923
C          1.30291        -7.98415         0.55941
C          2.62537        -7.30955         0.88814
C          3.76537        -7.90831         0.04735
C          5.13997        -7.30652         0.44516
C          6.25918        -7.95612        -0.34156
C          7.38100        -7.24130        -0.65924
C         -5.98887        -9.31832        -0.67638
C         -4.82593       -10.01810        -0.57778
C         -3.56319        -9.34665        -0.37297
C         -2.37951       -10.06015        -0.27773
C         -1.12834        -9.41027         0.00467
C          0.04911       -10.12034         0.11936
C          1.31379        -9.49545         0.63602
C          2.59064       -10.11537         0.11434
C          3.75386        -9.42330        -0.00731
C          4.99184       -10.06865        -0.40704
C          6.15060        -9.37512        -0.59670
O          5.85737         1.21184         1.13820
O          5.45061        -7.58573         1.82978
H          4.62530        -7.46015         2.35877
O          7.65942        -3.02755         1.42587
H          7.94699        -3.93758         1.65096
O         -7.63752         1.10453        -1.17279
O         -8.59957        -1.45860         1.11404
O         -0.33960         1.36320         2.01524
O          2.49364        -3.22668        -1.19535
H          1.63748        -2.89601        -1.54003
O          3.73471         0.23502         1.55125
O          3.70019         9.07605         1.87171
H          3.52770         9.94476         2.29157
O          5.55699         5.27379         1.43865
O         -6.71915        -2.94743        -1.82911
O         -2.63100         2.45144         2.02254
O          0.50675         5.52533        -1.66243
O          4.48050         7.59199        -1.36828
O          1.32510        -9.81640         2.08090
H          2.02368        -9.24376         2.48368
O         -1.60023        -1.15905         2.63388
H         -1.04103        -0.61800         3.23277
O          2.84102        -7.54619         2.32304
H          2.17188        -6.97917         2.78080
O         -0.95647         8.81468         1.55808
O         -9.47482        -1.26675        -2.39574
H        -10.07056        -1.81353        -2.94784
O          3.12831         3.04278        -1.53332
O         -2.78608        -0.81394        -0.57619
O         -5.92839         7.80418         1.54387
O          0.68593        -5.63368         2.18521
O         -6.42171         4.48780         1.95210
O         -0.60215         2.19908        -1.53223
H         -0.57324         2.96045        -2.15224
O         -3.98438         4.20992        -0.87765
O          3.87266        -3.40334         2.17895
H          4.79840        -3.48522         2.48975
O          9.65681         1.28511        -1.84628
O         10.64805        -1.32912        -2.36387
H         10.04252        -1.71030        -3.03611
O          2.39721         5.25237         1.42433
H          3.24408         5.49559         1.86025
O         -1.72873        -5.56250        -1.62586
H         -2.05844        -4.69767        -1.95543
O          6.07999        -3.51305        -1.87088
H          6.33992        -2.60205        -2.13182
O         -6.50537        -0.30559         1.95800
O          3.48512        -7.46200        -1.30411
H          4.18438        -7.81529        -1.89321
O          8.15963        -0.89196        -2.51687
H          8.62338        -0.17260        -3.00426
O         -3.89520        -2.92318        -1.51851
H         11.70748        -1.55207         0.39859
H         11.81715         0.84725         0.79269
H         10.94525         3.25022         0.38110
H          9.77197         5.52656         0.14485
H          8.47717         7.74674         0.35985
H          7.17984         9.90808         0.06516
H          5.04577        11.08176         0.08125
H          2.47519        11.08616        -0.06021
H          0.02229        10.86521        -0.92094
H         -2.67253        11.10828        -0.22896
H         -4.75816        10.95242        -0.37503
H         -6.85779        10.02841        -0.75052
H         -8.11432         7.56214        -1.04926
H         -9.58058         5.54251        -0.41889
H        -10.86438         3.40921        -0.38144
H        -12.12833         1.16504        -0.47079
H        -12.08788        -1.21792        -0.90875
H        -10.80053        -3.50607        -0.86798
H         -9.42618        -5.70647        -0.73383
H         -8.15001        -7.73811        -0.76843
H         -6.94456        -9.84447        -0.81670
H         -4.82967       -11.11638        -0.63828
H         -2.39530       -11.15622        -0.37570
H          0.03309       -11.21463        -0.00346
H          2.60232       -11.21180        -0.00010
H          4.96852       -11.15387        -0.58929
H          7.04568        -9.90232        -0.96138
H          8.24089        -7.74468        -1.12894
H          9.51667        -5.66891        -1.02624
H         10.73182        -3.60582        -1.27777
