         236
 CSIRO Nanostructure Databank - Neutral Graphene Oxide Data Set
C        -11.03232         0.54178         0.96144
C        -10.00446         1.39121         0.33458
C         -8.77598         0.60911        -0.16913
C         -7.48151         1.33961        -0.32700
C         -6.21626         0.63030         0.04992
C         -4.94119         1.39500        -0.03920
C         -3.67326         0.62506        -0.42598
C         -2.48864         1.48693        -0.11139
C         -1.36300         1.11085         0.55057
C         -0.05973         1.65820         0.28545
C          1.10047         0.84891         0.44161
C          2.33354         1.56138         0.37365
C          3.57897         0.88191         0.76793
C          4.91850         1.63833         0.77135
C          6.15539         0.80145         0.45945
C          7.30823         1.39273         0.07033
C          8.63972         0.76429         0.40301
C          9.73639         1.25491        -0.55390
C         11.04303         0.55927        -0.26681
C         -9.78248         2.82401         0.66178
C         -8.65876         3.52144         0.29647
C         -7.47313         2.83796        -0.28015
C         -6.16103         3.54415        -0.28130
C         -4.98958         2.85795        -0.35957
C         -3.77833         3.53321        -0.92163
C         -2.47438         2.78865        -0.83428
C         -1.24511         3.60573        -0.68621
C         -0.01718         2.99784        -0.13703
C          1.21009         3.67459        -0.18276
C          2.37649         2.94969         0.08017
C          3.64578         3.64831        -0.22331
C          4.92596         2.95472         0.02724
C          6.10280         3.55427        -0.30063
C          7.31646         2.73599        -0.64042
C          8.63118         3.49322        -0.54160
C          9.78775         2.76765        -0.53296
C         -8.42363         4.90228         0.72425
C         -7.29782         5.60618         0.43171
C         -6.22467         5.04942        -0.48255
C         -4.82986         5.66225        -0.16245
C         -3.76112         5.03709        -1.06183
C         -2.47563         5.81101        -1.49266
C         -1.24061         5.04258        -1.02428
C          0.00353         5.52542        -1.24412
C          1.13880         5.17700        -0.32667
C          2.40280         5.95279        -0.59078
C          3.63024         5.11720        -0.59298
C          4.92437         5.82455        -0.41137
C          6.18430         5.02742        -0.33835
C          7.47150         5.70105        -0.61515
C          8.62484         4.94320        -0.64661
C         -7.02275         6.90406         1.15150
C         -5.85732         7.76488         0.67665
C         -4.81242         7.17351        -0.10579
C         -3.69213         7.87435        -0.57879
C         -2.45817         7.29254        -1.04522
C         -1.31819         8.11732        -1.15711
C          0.06708         7.72256        -1.28901
C          1.24892         8.22492        -0.73046
C          2.46120         7.34503        -0.66814
C          3.77559         7.99516        -0.58757
C          4.95726         7.27732        -0.63683
C          6.27095         7.89491        -0.68752
C          7.43609         7.14039        -0.72810
C         -5.75822         8.96598         1.39618
C         -4.59780         9.74287         1.60584
C         -3.50524         9.71738         0.74539
C         -2.18013        10.12141         1.08876
C         -1.12308         9.94322         0.21245
C          0.27047        10.24911         0.40015
C          1.33224         9.55983        -0.15892
C          2.65513        10.28815        -0.30465
C          3.89321         9.42024        -0.08354
C          5.17097        10.07440        -0.56037
C          6.28811         9.35006        -0.78670
C        -11.02092        -0.82025         0.83609
C         -9.88364        -1.55719         0.31181
C         -8.75019        -0.83814        -0.01989
C         -7.47537        -1.58242        -0.15403
C         -6.19358        -0.87070        -0.03659
C         -4.92369        -1.50021        -0.51416
C         -3.70916        -0.82916         0.05755
C         -2.74896        -1.56840         0.69891
C         -1.36147        -1.08160         0.85517
C         -0.18153        -1.47572         0.27159
C          1.06182        -0.63936         0.45084
C          2.26273        -1.32207         0.49534
C          3.53121        -0.62508         0.84263
C          4.85665        -1.32171         0.67848
C          6.13417        -0.57170         1.10082
C          7.38437        -1.38459         0.79430
C          8.58066        -0.73972         0.50880
C          9.82699        -1.47936         0.40197
C         11.05480        -0.73677         0.10107
C         -9.78048        -3.01141         0.32120
C         -8.68546        -3.68917        -0.18480
C         -7.59696        -2.88338        -0.90163
C         -6.25425        -3.61851        -1.15171
C         -4.92272        -2.86865        -1.15340
C         -3.62800        -3.64009        -1.22036
C         -2.38114        -2.97309        -1.38472
C         -1.15846        -3.56850        -0.87306
C         -0.08222        -2.86602        -0.27531
C          1.11490        -3.57463         0.05394
C          2.26547        -2.80790         0.57479
C          3.57026        -3.53952         0.76989
C          4.87121        -2.80823         0.62750
C          6.14595        -3.53697         0.86544
C          7.35260        -2.80782         0.90899
C          8.63936        -3.52274         1.22591
C          9.85449        -2.81927         0.68196
C         -8.55042        -5.11084        -0.06669
C         -7.40007        -5.80534        -0.39537
C         -6.22232        -5.10330        -0.98677
C         -4.89848        -5.82448        -1.03483
C         -3.60796        -5.06688        -0.97518
C         -2.41961        -5.76298        -0.86178
C         -1.08718        -5.06139        -1.09510
C          0.08068        -5.74488        -0.43389
C          1.20820        -5.00243        -0.04503
C          2.44788        -5.70544         0.29912
C          3.60243        -5.00363         0.58885
C          4.86798        -5.67843         0.94120
C          6.14257        -4.94052         0.91942
C          7.39124        -5.67712         0.90441
C          8.58732        -4.99443         0.95653
C         -7.29885        -7.20712        -0.09172
C         -6.13304        -7.93038        -0.21210
C         -4.89664        -7.29096        -0.71763
C         -3.61308        -7.95777        -0.49396
C         -2.38008        -7.27293        -1.01917
C         -1.11636        -7.91402        -0.50609
C          0.07237        -7.18081        -0.34843
C          1.29515        -7.87991        -0.06555
C          2.48690        -7.16027         0.20485
C          3.69617        -7.87166         0.35196
C          4.91487        -7.19275         0.80438
C          6.22662        -7.84812         0.60396
C          7.38105        -7.11765         0.70798
C         -6.03570        -9.31165         0.19347
C         -4.84183        -9.96881         0.21784
C         -3.59189        -9.30633        -0.11994
C         -2.36428       -10.00973        -0.09897
C         -1.12746        -9.32717        -0.26229
C          0.09791       -10.01689        -0.13057
C          1.31827        -9.31301        -0.08702
C          2.56738        -9.99236        -0.03489
C          3.75340        -9.28236         0.13772
C          5.04536        -9.94725         0.14855
C          6.21206        -9.26808         0.32606
O         -4.95505        -6.79792        -2.14325
O         -4.46309         5.20851         1.17596
H         -5.14061         5.55176         1.81145
O         -7.52080         2.10723        -1.56736
O         -2.36373        -7.52336        -2.48596
H         -3.28003        -7.29736        -2.79695
O          4.75511        -6.56102         2.12044
O         -6.60723         5.35691        -1.83225
H         -6.00425         4.85752        -2.43091
O         -2.46919         5.88709        -2.92737
H         -2.69814         4.99133        -3.26493
O         -2.27465        -1.77607        -1.96365
H         -3.17517        -1.43162        -2.23207
O          3.40202         0.16902         2.04657
O         -4.91866        -1.65949        -1.98531
O          0.65429         5.65044         0.98870
H          1.37715         5.51877         1.63975
O          8.78599        -3.40138         2.70650
H          8.60643        -2.46307         2.93685
O          2.67078        10.82630        -1.63954
H          2.47905        10.10078        -2.26930
O         -3.78458         9.28616        -0.57558
O          3.62342         4.10899        -1.65602
O          2.74469        -3.19866         1.93462
O         -3.70843         0.56134        -1.88694
H         -3.10065         1.23068        -2.27022
O         -5.54214         1.11278         1.26293
O          9.33990         0.82283        -1.90010
H         10.06699         1.05523        -2.51506
O          4.94008        -1.99382        -0.61378
O          7.14799         2.43849        -2.06595
H          7.85411         1.78338        -2.30028
O         -4.18225         4.19368        -2.17955
O         -1.47478         9.51502        -1.08606
O          6.12221        -0.38824         2.53072
H          5.63984         0.48408         2.69991
O         -6.73968        -1.59671         1.12314
O          5.54741         5.56885         0.90448
O         -1.37519         0.13459         1.55124
O         -0.84352        -5.23049        -2.54600
H         -1.20506        -6.12102        -2.79817
O         -8.11623        -2.52751        -2.19856
H         -7.91400        -3.27723        -2.80413
O         -1.60970         2.85713        -2.00490
O         -3.05702        -2.80787         1.20019
H         -2.28429        -3.17626         1.67269
O          8.99258         1.25959         1.72602
H          8.20538         1.15108         2.30440
O          5.17982         2.00456         2.12345
O         -6.69943         6.49449         2.51351
H         -6.46263         7.29745         3.02464
O          3.99757         9.28786         1.37052
H          4.75530         8.69523         1.56513
O         -9.81048         1.07748        -1.07814
O          0.23083         6.58783        -2.09694
O         -6.44636        -4.48449        -2.31199
H         12.00929        -1.26990         0.23039
H         11.98751         1.09318        -0.45636
H         10.76696         3.27373        -0.53751
H          9.59696         5.44773        -0.77053
H          8.39687         7.66886        -0.83442
H          7.23425         9.84617        -1.05233
H          5.19695        11.17198        -0.62870
H          2.69626        11.15793         0.39554
H          0.50904        11.14644         0.99591
H         -1.99369        10.48669         2.10822
H         -4.54225        10.34239         2.52682
H         -6.61047         9.19337         2.06082
H         -7.95907         7.53060         1.18737
H         -9.18197         5.35782         1.38201
H        -10.57765         3.34878         1.21535
H        -11.84164         1.02721         1.52789
H        -11.85033        -1.40181         1.26653
H        -10.60571        -3.58974         0.76682
H         -9.38303        -5.66964         0.39043
H         -8.19312        -7.70385         0.31531
H         -6.95865        -9.83032         0.49160
H         -4.80052       -11.02538         0.51896
H         -2.35855       -11.08580         0.12638
H          0.09631       -11.11269        -0.04016
H          2.58868       -11.08859        -0.12021
H          5.06438       -11.03124        -0.03647
H          7.17481        -9.79750         0.27393
H          8.35329        -7.62189         0.59911
H          9.53598        -5.55103         0.91789
H         10.81251        -3.36163         0.69009
