         252
 CSIRO Nanostructure Databank - Neutral Graphene Oxide Data Set
C         30.32100        31.45270        -0.22047
C         30.37449        32.73703        -0.13329
C         30.27575        35.90323        -0.37037
C         30.26044        37.14371        -0.29288
C         30.24896        40.33034        -0.49944
C         30.30102        41.49010        -0.96755
C         32.80414        28.62182        -0.08756
C         31.74338        29.24759        -0.28473
C         32.68476        31.37944         0.23763
C         31.42085        30.63166        -0.18422
C         32.66026        32.89404         0.36520
C         31.39762        33.63622         0.03755
C         32.60449        35.80009        -0.00349
C         31.42649        35.06074        -0.12516
C         32.62638        37.29154        -0.13591
C         31.32464        38.07442        -0.10516
C         32.56254        40.25714         0.06023
C         31.30547        39.44567        -0.12163
C         32.66062        41.65719        -0.48312
C         31.42377        42.34698        -1.10424
C         32.86359        44.15100        -1.38045
C         31.68562        43.62857        -1.52878
C         35.70002        27.14873         0.28853
C         35.41770        28.57561         0.46851
C         34.08119        29.24451         0.32085
C         35.23370        31.53287         0.32695
C         34.02681        30.73767        -0.11733
C         35.17840        32.95464         0.37936
C         33.93527        33.63963         0.34840
C         35.09598        35.87613         0.66809
C         33.83474        35.10407         0.44687
C         35.24845        37.32812         0.22157
C         33.90623        38.06267         0.01894
C         35.11164        40.28058         0.31638
C         33.80898        39.50730         0.53665
C         35.20360        41.57283        -0.10458
C         34.04288        42.17616        -0.89213
C         35.29915        44.43305        -0.68061
C         34.08930        43.72839        -0.96930
C         35.45645        45.86764        -0.75655
C         38.11085        27.32597         0.01900
C         36.82678        26.70207         0.01670
C         37.93131        28.76149         0.12939
C         36.67084        29.37657         0.23726
C         37.79118        31.69513         0.01321
C         36.51190        30.83641         0.07216
C         37.71276        33.09053         0.44892
C         36.42049        33.73976         0.53862
C         37.54495        35.86316         1.18880
C         36.36695        35.11825         0.71002
C         37.56414        37.34965         1.20829
C         36.21326        38.08332         1.18584
C         37.64778        40.24622         0.74629
C         36.34302        39.51035         0.63079
C         37.75554        41.69744         0.43478
C         36.55585        42.27556        -0.31829
C         37.66579        44.57201         0.15511
C         36.45747        43.79339        -0.23598
C         37.76825        46.04633        -0.10127
C         36.48883        46.51752        -0.50799
C         40.37131        24.72236        -1.40029
C         39.57156        25.38091        -0.66914
C         40.59610        27.45017        -0.18855
C         39.36584        26.70231        -0.18912
C         40.54157        28.89852         0.07104
C         39.16177        29.58032         0.23180
C         40.25928        31.80543         0.12498
C         39.09417        31.03538         0.11482
C         40.19784        33.20703         0.37133
C         38.91905        33.76576         0.69880
C         40.13982        35.86376         1.45174
C         38.86136        35.10672         1.29393
C         40.05589        37.36901         1.50391
C         38.71969        38.03827         1.42475
C         40.32480        40.25768         0.29580
C         38.56339        39.51924         1.71476
C         40.26919        41.68626         0.41391
C         39.00640        42.33648         0.26536
C         40.24650        44.59870         0.09074
C         39.01081        43.82909         0.30092
C         40.22901        45.98019         0.17150
C         38.97037        46.70801         0.05960
C         40.29608        48.80181        -0.00749
C         39.26279        48.11711         0.00167
C         42.81442        24.95114        -2.30302
C         41.77084        24.82841        -1.34786
C         42.87342        27.73833        -1.13096
C         41.86877        26.92858        -0.53818
C         42.80046        29.15562        -0.97111
C         41.67437        29.72412        -0.37045
C         42.79021        32.02399        -0.45633
C         41.51875        31.17882        -0.34084
C         42.72900        33.42067         0.07158
C         41.41506        34.00036         0.46848
C         42.65887        36.02085         1.39132
C         41.41010        35.27536         0.98878
C         42.68644        37.52144         1.10304
C         41.29004        38.12977         1.25783
C         43.07764        40.61679         1.24225
C         41.17021        39.50932         1.13317
C         42.92684        41.84050         0.53267
C         41.57490        42.40420         0.22503
C         42.80870        44.58353         0.04598
C         41.52382        43.86734        -0.14983
C         42.71989        45.86744         0.47233
C         41.55326        46.72944         0.00367
C         42.92479        48.75755        -0.07488
C         41.62046        48.25767         0.49819
C         43.75329        25.77479        -2.30840
C         45.24694        27.79258        -1.71470
C         43.92187        27.24663        -2.17541
C         45.31195        29.25016        -1.36609
C         43.99273        30.03320        -1.37777
C         45.22983        31.81630         0.05982
C         44.06921        31.31121        -0.53801
C         45.18488        33.11771         0.78660
C         43.98867        34.00135         0.62744
C         45.24659        36.08205         1.34471
C         43.96430        35.30550         1.37889
C         45.23680        37.44077         1.31412
C         43.97222        38.26963         1.64814
C         45.33166        40.27549         0.53817
C         44.13598        39.73422         1.13751
C         45.32341        41.67068         0.09547
C         44.11706        42.42601         0.07854
C         45.44644        44.55271        -0.09009
C         44.09222        43.86856        -0.41991
C         45.47660        46.07543        -0.55653
C         44.64209        46.97334         0.03367
C         44.03765        48.25104        -0.25340
C         47.49750        27.66635        -0.92474
C         46.45647        27.19402        -1.52415
C         47.64537        28.86011        -0.27807
C         46.54529        29.80510        -0.62675
C         47.66390        31.70825         0.58405
C         46.46809        31.10521         0.09557
C         47.72945        33.07178         0.93384
C         46.46921        33.78593         1.22947
C         47.74413        35.91992         0.95844
C         46.52693        35.27427         1.62311
C         47.82700        37.43305         1.20344
C         46.53038        38.25228         1.36811
C         47.56874        39.90870        -0.47550
C         46.49175        39.50138         0.50438
C         47.81287        41.45968        -0.42990
C         46.53095        42.29079        -0.38751
C         47.76172        44.20963        -1.31663
C         46.58141        43.65927        -0.65642
C         47.61396        45.60976        -1.63116
C         46.58733        46.27669        -1.41438
C         50.12807        28.79741         0.35831
C         48.78255        29.34640         0.51323
C         50.20300        31.54819         0.88547
C         48.87705        30.86947         0.80799
C         50.23027        32.96890         0.96871
C         49.00086        33.75961         1.04983
C         50.32862        35.93541         1.37654
C         49.03352        35.14826         1.18579
C         50.24694        37.10833         0.38172
C         49.09083        38.01311         0.60783
C         50.20355        39.87484        -0.74166
C         48.93579        39.21224        -0.29213
C         50.19343        41.26637        -1.28601
C         48.81562        41.89556        -1.52315
C         50.12968        43.80039        -2.11552
C         48.86104        43.43795        -1.62528
C         51.19191        29.37569         0.64397
C         52.60294        31.55167         0.78231
C         51.42250        30.77682         0.77931
C         52.57539        32.80707         0.78572
C         51.48203        33.69365         0.92328
C         52.65222        35.90434         0.79952
C         51.54406        35.08597         1.03908
C         52.71173        37.13137         0.49640
C         51.52022        37.73547        -0.25641
C         52.58636        40.00323        -0.79834
C         51.49152        39.26369        -0.08655
C         52.55106        41.10071        -1.36574
C         51.37804        41.88423        -1.68199
C         51.23235        43.21110        -2.24281
O         34.60614        28.98134         1.61739
O         33.41456        37.82246        -1.32265
O         41.92777        31.82660        -1.60849
O         38.94496        40.03168         2.74965
O         48.79559        38.08908         2.07313
O         46.35252        29.98053        -2.09110
O         43.21868        35.45514         2.62375
O         41.53754        42.88361        -1.22628
O         32.57797        31.97764         1.54225
O         40.00031        29.20830         1.39740
O         32.42440        41.44540         0.93428
O         41.99437        40.22406         2.00714
O         43.59595        34.28161        -0.75926
O         43.84457        46.44145         1.07960
O         40.25118        36.54959         2.72616
O         48.56450        29.85193         1.83994
O         34.24988        35.65546         1.83631
O         45.62098        33.03574         2.17840
O         49.52121        38.90243        -1.59954
O         37.07959        31.32717        -1.22986
O         42.16303        25.57552        -0.19055
O         38.00594        35.24189         2.45477
O         38.22704        44.26554         1.46620
O         37.30176        39.47319        -0.48658
O         43.86774        38.29969         3.06852
H         44.72516        38.63938         3.41786
O         48.48325        41.72733         0.82700
H         47.86828        41.51068         1.56069
O         35.72257        38.11025         2.51952
H         35.36969        37.22563         2.76173
O         41.67485        48.30560         1.88820
H         41.75381        49.23271         2.19074
O         45.60504        44.52469         1.33182
H         46.46026        44.93929         1.56802
O         34.06503        30.73438        -1.57330
H         34.99682        30.82517        -1.87256
O         43.56586        27.80772        -3.43943
H         43.63264        28.80068        -3.39591
O         41.74963        46.79855        -1.43423
H         41.08797        47.42564        -1.80021
O         42.85884        37.59655        -0.34896
H         42.40016        36.84197        -0.77770
O         33.61981        39.36635         1.95874
H         33.35370        40.24562         2.31056
O         43.80065        30.42169        -2.76684
H         44.63394        30.85841        -3.05530
O         46.72459        35.33798         3.04525
H         46.12426        34.67602         3.45699
O         44.00457        43.85979        -1.85524
H         43.13691        43.45227        -2.09430
O         36.87196        41.96776        -1.74249
H         37.03595        40.99056        -1.75666
O         51.50464        39.55681         1.29241
H         51.64156        40.51683         1.42637
O         48.34427        41.45431        -2.81250
H         48.99782        41.73373        -3.48844
O         51.70832        37.44167        -1.62082
H         51.89479        36.48691        -1.72700
O         39.70435        39.59569        -0.70483
H         39.22423        40.22037        -1.28715
O         35.91643        37.27949        -1.05288
H         35.22157        37.34102        -1.75023
O         47.45442        35.81275        -0.46700
H         48.19554        36.21341        -0.97236
O         47.02425        39.50598        -1.73997
H         47.73553        39.60342        -2.41726
O         34.22577        41.69971        -2.24257
H         35.16240        41.90044        -2.49618
O         46.54372        38.77288         2.74711
H         46.98855        38.10456         3.31363
O         50.49705        36.29337         2.76079
H         49.97715        37.11106         2.94431
