         276
 CSIRO Nanostructure Databank - Neutral Graphene Oxide Data Set
C        -11.20115         0.67738         0.12327
C         -9.99706         1.47527        -0.33972
C         -8.76875         0.72358         0.14855
C         -7.62009         1.42258         0.74113
C         -6.37339         0.58472         1.08970
C         -5.08082         1.41486         1.16497
C         -3.79931         0.68137         1.03053
C         -2.54772         1.44141         0.98641
C         -1.20600         0.71329         1.13661
C          0.00688         1.45811         1.43452
C          1.31028         0.75194         1.49758
C          2.54526         1.43531         0.85137
C          3.83907         0.73119         1.17973
C          5.10423         1.49459         1.24480
C          6.41703         0.76135         1.05870
C          7.60517         1.49513         0.46116
C          8.73619         0.74042        -0.14930
C          9.86509         1.42231        -0.92913
C         11.12298         0.71492        -0.37277
C         -9.98864         2.96272        -0.07647
C         -8.83579         3.64990         0.13731
C         -7.62289         2.92027         0.61514
C         -6.30554         3.59983         0.45639
C         -5.07573         2.91471         0.96964
C         -3.77573         3.64683         0.74853
C         -2.56984         2.91855         1.25985
C         -1.31056         3.70263         1.45234
C          0.02879         2.96717         1.65251
C          1.16992         3.57794         0.79070
C          2.55105         2.94565         1.18587
C          3.73972         3.62449         0.51669
C          5.04264         2.96184         0.78790
C          6.26904         3.67560         0.29020
C          7.47968         2.87455        -0.12960
C          8.80001         3.66711         0.01535
C          9.90494         2.90681        -0.64896
C         -8.74623         5.10289         0.00081
C         -7.57385         5.79218         0.05157
C         -6.28216         5.07193         0.22119
C         -5.08469         5.85000         0.69418
C         -3.75227         5.14679         0.72076
C         -2.49753         5.88704         1.08848
C         -1.32103         5.18377         1.19086
C         -0.07977         5.80448         0.55570
C          1.26203         5.10591         0.92135
C          2.36762         5.58074        -0.05009
C          3.65601         4.83483        -0.10419
C          4.80165         5.34699        -1.00677
C          6.16586         4.97166        -0.43547
C          7.41073         5.51684        -1.08881
C          8.67084         4.91012        -0.81924
C         -7.43442         7.21296        -0.44619
C         -6.44179         8.09303         0.36044
C         -5.13506         7.34395         0.69330
C         -3.80824         8.08457         0.66349
C         -2.50931         7.38850         0.99859
C         -1.18785         8.19470         0.79503
C          0.06242         7.31295         0.72058
C          1.30965         7.92628         0.16355
C          2.36744         7.02737        -0.42755
C          3.59666         7.66409        -1.02279
C          4.77039         6.82912        -1.42311
C          6.05324         7.49500        -1.96242
C          7.33890         6.78240        -1.64034
C         -6.19982         9.36493        -0.41229
C         -4.98298         9.87806        -0.67483
C         -3.73596         9.27234        -0.23441
C         -2.54911         9.68814        -0.77242
C         -1.25296         9.16732        -0.38546
C         -0.11230         9.70817        -0.89795
C          1.25029         9.42331        -0.30205
C          2.42692         9.71532        -1.18267
C          3.73681         9.17289        -0.70373
C          5.01913         9.72871        -1.28826
C          6.06692         8.98921        -1.67849
C        -11.16046        -0.65661        -0.00397
C         -9.94539        -1.33882        -0.61094
C         -8.67962        -0.61048        -0.16989
C         -7.41173        -1.30081        -0.17574
C         -6.23983        -0.68303         0.26537
C         -4.97376        -1.33920         0.26525
C         -3.79537        -0.68411         0.69695
C         -2.58506        -1.54718         1.04823
C         -1.28169        -0.77126         1.37143
C          0.02165        -1.51210         1.41529
C          1.32446        -0.74957         1.48347
C          2.57029        -1.50426         1.09667
C          3.84743        -0.72376         0.96049
C          5.09971        -1.44050         1.40518
C          6.38936        -0.72976         0.95837
C          7.22218        -1.29661        -0.18790
C          8.64667        -0.75296        -0.26402
C          9.94728        -1.48788        -0.07933
C         11.12787        -0.56869         0.04418
C         -9.84551        -2.82358        -0.20153
C         -8.57477        -3.47266        -0.72310
C         -7.38563        -2.56537        -1.00539
C         -6.04487        -3.30403        -0.96494
C         -4.92987        -2.81991        -0.04060
C         -3.56972        -3.32386        -0.53100
C         -2.34569        -2.71004         0.07925
C         -1.13988        -3.54279         0.33432
C          0.14562        -2.81592         0.62486
C          1.26181        -3.70167         1.15649
C          2.59248        -2.99202         1.39146
C          3.89773        -3.73794         1.28226
C          5.18837        -2.95830         1.17924
C          6.41156        -3.63815         0.60084
C          7.13404        -2.80508        -0.41161
C          9.34278        -3.95411         0.19070
C         10.00047        -2.85255         0.53984
C         -8.52762        -4.80301        -0.97642
C         -7.29855        -5.53209        -1.29007
C         -6.02307        -4.78044        -1.22770
C         -4.77746        -5.52880        -1.04201
C         -3.52606        -4.77311        -0.93968
C         -2.25954        -5.55593        -0.65810
C         -1.09061        -4.89691        -0.01660
C          0.07564        -5.69887         0.07957
C          1.22711        -5.17480         0.82977
C          2.53978        -5.80389         0.45713
C          3.83666        -5.06542         0.56489
C          5.11808        -5.78661         0.16569
C          6.43545        -5.14319         0.46350
C          7.70271        -5.90893         0.17844
C          8.98961        -5.19612        -0.12313
C         -7.28811        -6.88556        -1.39369
C         -6.04718        -7.74431        -1.51729
C         -4.74642        -6.94683        -1.37859
C         -3.48926        -7.74437        -1.07739
C         -2.39606        -7.02125        -0.29062
C         -1.08976        -7.75757        -0.45402
C          0.14200        -6.95280        -0.80937
C          1.51459        -7.79782        -0.78279
C          2.48694        -7.31968         0.37199
C          3.84503        -8.02115         0.17000
C          5.09220        -7.24580        -0.14008
C          6.37625        -7.99093        -0.30868
C          7.56488        -7.31985        -0.29404
C         -6.06509        -8.84913        -0.46815
C         -4.95779        -9.53118        -0.14987
C         -3.63829        -9.26248        -0.85840
C         -2.43366        -9.85060        -0.09400
C         -1.11758        -9.14999        -0.38887
C          0.05794        -9.91297        -0.50727
C          1.34814        -9.31428        -0.54526
C          2.48652       -10.07967        -0.40482
C          3.82040        -9.45279        -0.25017
C          5.05996       -10.02441        -0.82482
C          6.24589        -9.36880        -0.77291
O         -5.69465        -3.73690        -2.30002
O         -1.76422         1.08337        -0.20722
O         -3.56339         4.33286        -0.50539
O         -5.32411         6.58024         1.93383
O          1.86983         6.01047        -1.34930
O          2.16654        -7.63425        -1.98075
O         -2.54081        -5.11502        -1.98933
O         -2.19259         3.34120         2.59638
O          7.18177        -5.75952         1.55163
O          1.55662        -0.01267         2.72928
O         -3.72577        -7.30884        -2.41667
O          8.80909         1.23897         1.22827
O         -3.27925         8.12137         2.02615
O          4.06769        -9.03543         1.19274
O          1.13281         7.77415         1.58784
O          3.13021        -1.23562        -0.24191
O          3.24900        -3.53336         2.56832
O          4.99602        -6.25832        -1.21200
O         -6.07407         4.12779        -0.88745
O          6.34569        -3.32533         2.01448
O          5.18916         2.59210         2.19966
O         -0.74003        -1.31214         2.62679
O          3.71841         7.20311        -2.39076
O          7.33539        -3.25375        -1.53012
O          6.97552        -0.10073         2.11378
O          9.34174        -1.33483        -1.41042
O         -5.14284         2.35519         2.30621
O          0.93505        -4.67033         2.17577
O          3.01644        -5.00580        -0.66258
O         -2.74189        -2.42691        -1.31072
O         -7.90388         2.29876         1.90514
O          6.40576         4.94645         1.01251
O          1.92965        -7.74731         1.61738
H          2.50345        -8.48435         1.94919
O         -2.69930        -9.73167         1.31990
H         -1.93390       -10.09651         1.81090
O         -6.90609         7.13612        -1.77848
H         -7.33091         6.38960        -2.24939
O        -10.10446        -1.26920        -2.05231
H         -9.24553        -1.56292        -2.45701
O          4.98372        -1.30450         2.83310
H          5.77976        -1.70508         3.24625
O          6.56213        -0.74361        -1.36206
H          6.92445        -1.22364        -2.14266
O         -7.07981         8.45579         1.59895
H         -6.73648         7.85152         2.29662
O         -3.02377        -2.19695         2.27872
H         -2.26192        -2.17874         2.91288
O          0.00000        -6.48381        -2.15561
H          0.85764        -6.75692        -2.60547
O          2.37494         1.28484        -0.59048
H          2.52657         0.32710        -0.81690
O         -9.85703        -2.92466         1.23115
H         -9.09815        -2.41534         1.58652
O         -3.67884        -9.91829        -2.13221
H         -4.41208        -9.50330        -2.64986
O          1.58490         5.45987         2.26033
H          2.11840         4.73135         2.67185
O          0.83591         3.33964        -0.58440
H          1.14695         2.44205        -0.86790
O          0.33414         3.15459         3.05830
H         -0.51574         3.05320         3.54759
O          9.79947         1.18909        -2.34523
H          9.75606         0.21124        -2.47183
O         -6.04681        -8.39463        -2.81441
H         -5.73747        -7.74146        -3.47842
O          6.00526         7.41348        -3.42079
H          5.06638         7.56525        -3.67902
O         -6.60331         0.09165         2.43275
H         -6.72084         0.88891         2.99908
O          2.77304         3.08790         2.59514
H          2.16294         2.49802         3.09358
O          3.86602         9.25673         0.71982
H          3.06103         9.70370         1.09348
O         -0.98897         9.04754         1.94590
H         -1.87358         9.16016         2.37581
O          1.36624        10.23154         0.89962
H          0.71516         9.86144         1.55274
O         -5.19030        -3.52036         1.20960
H         -4.58181        -3.14061         1.89464
O         -2.80844        -7.00926         1.10222
H         -2.79886        -7.94338         1.43899
O         -0.43869         5.62855        -0.83517
H         -0.13002         4.73545        -1.13088
O          4.70460         4.58033        -2.23078
H          3.92557         4.92490        -2.72229
O          9.07819         3.96740         1.40087
H          8.30934         4.46968         1.75363
O         -7.57094        -2.10375        -2.38337
H         -7.00510        -2.68616        -2.95157
O          0.61655        -2.30902        -0.66669
H          0.47232        -2.99687        -1.35292
O         -9.96994         1.43657        -1.79956
H        -10.12391         0.49598        -2.08668
O          7.26187         2.59291        -1.54109
H          7.23328         3.43217        -2.05015
H         12.06215        -1.00068         0.43714
H         12.05415         1.29879        -0.30253
H         10.82265         3.45249        -0.92201
H          9.58025         5.43237        -1.15225
H          8.25600         7.24415        -2.03701
H          6.98475         9.50885        -1.99772
H          5.13890        10.82101        -1.21250
H          2.26662         9.75034        -2.27329
H         -0.18924        10.49852        -1.66158
H         -2.56288        10.50386        -1.51238
H         -4.89998        10.79880        -1.27244
H         -7.09666         9.88840        -0.77503
H         -8.44053         7.71886        -0.45671
H         -9.67749         5.64255        -0.23491
H        -10.89548         3.51484        -0.36990
H        -12.08563         1.18930         0.53129
H        -12.01448        -1.28319         0.29392
H        -10.73818        -3.38285        -0.57527
H         -9.43859        -5.40834        -0.84406
H         -8.24690        -7.42704        -1.36423
H         -7.02648        -9.09330         0.00910
H         -5.00161       -10.34571         0.58839
H         -2.34428       -10.93907        -0.35242
H         -0.01569       -11.01275        -0.49613
H          2.40180       -11.17111        -0.27067
H          5.01152       -11.03747        -1.25062
H          7.15551        -9.86443        -1.14497
H          8.48917        -7.85476        -0.56365
H          9.69211        -5.76754        -0.76033
H         10.60279        -2.89797         1.46851
