         621
 CSIRO Nanostructure Databank - Neutral Graphene Oxide Data Set
C          5.63003        31.73714         1.36488
C          5.81800        33.06750         1.15451
C          8.30744        27.46756         1.05632
C          8.22247        28.83143         1.14690
C          6.95220        29.49238         1.54769
C          8.42773        31.77185         0.27495
C          6.59388        30.69080         1.01095
C          8.32182        33.13621         0.44894
C          7.09807        33.87450         0.94215
C          8.22298        36.06213         0.23362
C          6.93130        35.24526         0.20443
C          8.27790        37.42242         0.27066
C         10.73201        23.15553         0.73539
C         10.71727        24.54363         0.64819
C          9.52499        25.31821         0.81547
C         10.80171        27.42133         0.86262
C          9.53385        26.71064         0.87164
C         10.80358        28.86931         1.17551
C          9.49221        29.67830         1.28600
C         10.84511        31.71692         0.51439
C          9.61014        31.02313         0.55034
C         10.87808        33.19581         0.39409
C          9.57560        33.91521         0.47414
C         10.74929        36.01659        -0.36601
C          9.47055        35.30553        -0.06276
C         10.77655        37.47942        -0.13817
C          9.52117        38.18118         0.14422
C         10.74633        40.33833         0.22831
C          9.52363        39.56186         0.21322
C         10.75821        41.70547         0.32146
C         13.17244        18.80524         0.77760
C         13.16217        20.18954         0.76295
C         11.95276        20.96986         0.70946
C         13.21820        23.09089         0.76843
C         11.93087        22.35832         0.68381
C         13.23219        24.57139         0.63278
C         11.95916        25.28794         0.20379
C         13.25590        27.45656         0.52101
C         11.98817        26.75417         0.60185
C         13.29783        28.82859         0.53757
C         12.09391        29.60830         0.85466
C         13.20490        31.67987        -0.15905
C         12.05791        31.03514         0.49616
C         13.24365        33.12340        -0.39852
C         12.08628        33.88085        -0.15347
C         13.22220        35.99201        -0.86151
C         12.02995        35.26640        -0.37900
C         13.19877        37.49324        -0.68702
C         11.97238        38.14018        -0.14421
C         13.22618        40.31087        -0.27188
C         12.05408        39.56366         0.37572
C         13.20303        41.77328        -0.13385
C         12.05285        42.42886         0.64290
C         13.23707        44.64124         0.12258
C         12.10178        43.93470         0.47867
C         13.32860        46.06688         0.14318
C         15.67170        14.65312        -0.04960
C         15.64873        15.94087         0.46109
C         14.45116        16.73301         0.48124
C         15.58260        18.78293         1.50815
C         14.40303        18.06236         0.85732
C         15.72821        20.20240         1.00021
C         14.47613        20.87145         0.60344
C         15.77871        23.07794         0.69013
C         14.49760        22.36645         0.50974
C         15.80256        24.48747         0.57548
C         14.53751        25.22519         0.30138
C         15.79838        27.39570         0.58028
C         14.53381        26.72258         0.32344
C         15.87534        28.84773         0.57815
C         14.56944        29.59836         0.50529
C         15.77685        31.69796        -0.28799
C         14.52242        30.92001        -0.17671
C         15.77151        33.03734        -0.55923
C         14.48938        33.68080        -1.07160
C         15.83618        35.98311        -1.06768
C         14.51005        35.23261        -1.13759
C         15.81214        37.47465        -0.83031
C         14.51436        38.22874        -0.72285
C         15.71051        40.29572         0.02202
C         14.55562        39.63605        -0.27331
C         15.69194        41.76644         0.20807
C         14.46928        42.47894        -0.11140
C         15.73724        44.60329        -0.45750
C         14.41320        43.89795        -0.51028
C         15.64757        46.02866        -0.80601
C         14.45830        46.78298        -0.32363
C         15.73191        48.93769        -0.56862
C         14.54017        48.18255        -0.27250
C         15.74745        50.32919        -0.43055
C         18.16755        10.48347        -1.05037
C         18.13770        11.84755        -0.80660
C         16.90048        12.56985        -0.63382
C         18.17329        14.50790         0.15150
C         16.87395        13.87673        -0.18664
C         18.20365        15.89060         0.72099
C         16.88661        16.55174         1.01457
C         18.20271        18.71299         1.55556
C         16.88645        17.97524         1.46361
C         18.17232        20.22754         1.47268
C         16.90386        20.90716         1.10512
C         18.22346        23.03663         0.86749
C         16.97465        22.34728         0.86776
C         18.25921        24.45084         0.66851
C         17.02356        25.17063         0.60244
C         18.34373        27.37865         0.41012
C         17.03253        26.64180         0.66425
C         18.29085        28.78395        -0.05857
C         17.10008        29.47501         0.04090
C         18.29526        31.57208        -0.67086
C         16.99924        30.85894        -0.44200
C         18.26040        33.03026        -0.30247
C         17.06332        33.74640        -0.98963
C         18.25958        35.90570        -0.46079
C         17.08585        35.24740        -0.68916
C         18.32899        37.40862        -0.43648
C         17.01976        38.10781        -0.19006
C         18.30310        40.32185         0.18779
C         17.00735        39.56856         0.17038
C         18.26789        41.76070        -0.00756
C         17.00088        42.52704         0.09444
C         18.19192        44.65031        -0.59765
C         16.94208        43.94572        -0.36996
C         18.21278        46.03694        -0.80374
C         16.95678        46.77916        -0.97741
C         18.20681        48.88942        -0.87938
C         16.97474        48.23729        -0.82571
C         18.23144        50.35099        -1.01142
C         16.91787        51.12729        -0.78159
C         18.20037        53.25256        -0.56475
C         17.02618        52.55847        -0.42718
C         18.28202        54.68470        -0.40927
C         20.62919         6.30086        -0.85337
C         20.60715         7.63037        -1.23916
C         19.40194         8.37681        -1.19333
C         20.65535        10.50517        -1.23328
C         19.39868         9.77368        -1.20360
C         20.64717        11.89107        -1.03005
C         19.39862        12.57451        -0.76018
C         20.60867        14.72294        -0.53371
C         19.39041        13.91459        -0.42926
C         20.63248        16.14996        -0.00196
C         19.42111        16.73027         0.62481
C         20.70091        18.75114         1.14257
C         19.45315        18.02105         1.11447
C         20.67544        20.18247         1.52803
C         19.44140        20.95067         1.27444
C         20.72432        23.05762         0.98974
C         19.47053        22.32518         1.04631
C         20.74097        24.43930         0.59758
C         19.50183        25.11980         0.45413
C         20.76403        27.21604        -0.42115
C         19.49555        26.52990        -0.00532
C         20.79920        28.70559        -0.46439
C         19.53945        29.43887        -0.44256
C         20.74216        31.58481        -0.92487
C         19.54456        30.82272        -0.55013
C         20.75053        33.06367        -0.70113
C         19.58177        33.72910        -0.44849
C         20.81091        35.91881        -0.28967
C         19.52593        35.17538        -0.03169
C         20.81827        37.27252         0.12232
C         19.59151        38.13769        -0.03668
C         20.72163        40.44247         0.49584
C         19.51012        39.61683         0.29798
C         20.70794        41.88992         0.07161
C         19.42264        42.51144        -0.24392
C         20.65802        44.59789        -0.71139
C         19.42802        43.92149        -0.53005
C         20.68456        46.02841        -0.86135
C         19.44505        46.76564        -0.84263
C         20.72235        48.93358        -1.01629
C         19.44777        48.17194        -0.92639
C         20.68366        50.38313        -0.67366
C         19.49569        51.05700        -0.76992
C         20.66137        53.23986        -0.30762
C         19.47715        52.54634        -0.99058
C         20.77584        54.68405        -0.81904
C         19.46538        55.39978        -0.52422
C         20.71398        57.52299        -0.37449
C         19.50769        56.81810        -0.40789
C         20.73386        58.94053        -0.22934
C         23.08125         3.54479        -0.10500
C         21.86042         4.23213        -0.30327
C         23.10599         6.26108        -0.91605
C         21.84867         5.56795        -0.70082
C         23.11469         7.57279        -1.35872
C         21.85408         8.30983        -1.76050
C         23.10355        10.49049        -1.40828
C         21.90105         9.79956        -1.42415
C         23.14417        11.91842        -1.14385
C         21.88740        12.63807        -0.97872
C         23.11446        14.79900        -0.69280
C         21.87761        14.01037        -0.74625
C         23.12756        16.12415        -0.02205
C         21.94102        16.77955         0.29214
C         23.15491        18.88173         0.82053
C         21.91165        18.13494         0.80037
C         23.19929        20.20461         1.18607
C         21.97712        20.95068         1.55334
C         23.16044        23.12561         1.18339
C         21.95130        22.40836         1.25760
C         23.18988        24.47868         0.73583
C         21.98826        25.12213         0.39784
C         23.29423        27.25016        -0.13602
C         22.06392        26.41064        -0.42428
C         23.27756        28.67592        -0.40066
C         22.00657        29.36819        -0.60807
C         23.29710        31.58936        -1.01803
C         22.02443        30.80081        -1.00056
C         23.23575        33.06093        -0.82644
C         22.04353        33.76034        -0.71445
C         23.24924        35.92787        -0.47810
C         22.02387        35.21124        -0.49882
C         23.28186        37.22797         0.06162
C         22.07053        37.75384         0.53482
C         23.21478        40.34816        -0.04434
C         22.09422        39.89523         0.56763
C         23.15800        41.64682        -0.81736
C         21.95107        42.49236        -0.41542
C         23.12673        44.53087        -1.01698
C         21.90042        43.84662        -0.72284
C         23.03708        45.87949        -1.31586
C         21.90742        46.69471        -1.07853
C         23.25932        48.88355        -0.46219
C         22.04965        48.19157        -1.07883
C         23.08211        50.26068         0.05261
C         21.92945        51.08694        -0.38314
C         23.16586        53.18833         0.11078
C         21.96179        52.46266        -0.27148
C         23.16046        54.66234         0.04214
C         21.98178        55.38570        -0.24807
C         23.19731        57.50028        -0.17581
C         21.98391        56.79452        -0.29079
C         23.22966        58.97484        -0.46453
C         21.92192        59.66498        -0.14876
C         23.15636        61.73651         0.27697
C         21.94775        61.05866         0.09039
C         24.29287         4.17668        -0.29022
C         25.57978         6.19455        -0.87082
C         24.35426         5.54685        -0.69882
C         25.65096         7.55918        -1.26535
C         24.38877         8.22897        -1.62535
C         25.65306        10.43344        -1.35852
C         24.38901         9.78545        -1.65978
C         25.64589        11.89148        -1.20454
C         24.35610        12.58341        -1.00561
C         25.60178        14.58677        -0.01816
C         24.42559        14.04227        -0.81758
C         25.62907        16.09471         0.06340
C         24.41358        16.76815         0.14643
C         25.72014        18.93385         0.50146
C         24.39345        18.22903         0.32974
C         25.75123        20.27647         1.10181
C         24.46774        20.91771         1.41253
C         25.70897        23.18068         1.44744
C         24.41526        22.43996         1.54768
C         25.66922        24.54122         0.87441
C         24.47779        25.16567         0.57662
C         25.73936        27.26186         0.09554
C         24.48556        26.57149         0.15304
C         25.73311        28.66126        -0.34195
C         24.47037        29.39554        -0.43117
C         25.80203        31.60746        -0.38077
C         24.57677        30.84476        -0.77029
C         25.81368        33.06562        -0.47278
C         24.54625        33.75803        -0.88533
C         25.76624        35.92156        -0.17376
C         24.52941        35.25451        -0.76526
C         25.74152        37.40498        -0.44503
C         24.51057        38.07698         0.08289
C         25.75256        40.31080        -0.37758
C         24.50239        39.60189         0.03101
C         25.68125        41.74017        -0.50897
C         24.47080        42.39896        -0.67192
C         25.61128        44.62076        -0.10456
C         24.38512        43.86716        -0.56067
C         25.69298        46.10488        -0.06804
C         24.81913        46.96729        -0.66989
C         25.52971        48.89163         0.65307
C         24.48103        48.27957        -0.16939
C         25.59583        50.28955         0.80835
C         24.33199        51.02670         0.60698
C         25.54202        53.23526         0.86938
C         24.31199        52.50108         0.49032
C         25.58154        54.71896         0.68046
C         24.35389        55.39830         0.23339
C         25.66052        57.51983         0.19930
C         24.39181        56.79967         0.06747
C         25.63523        58.94009         0.24647
C         24.45129        59.66710         0.09640
C         24.38335        61.05969         0.31150
C         26.84421         8.27790        -1.27367
C         28.10389        10.38966        -1.06264
C         26.87050         9.71236        -1.30604
C         28.17980        11.77420        -0.76665
C         26.94637        12.59049        -0.90597
C         28.10050        14.57975        -0.00748
C         26.93325        13.95918        -0.34184
C         28.13206        16.00817         0.25509
C         26.90136        16.75702         0.26175
C         28.19299        18.81714         0.74513
C         26.96133        18.14476         0.51386
C         28.20913        20.22777         0.98672
C         26.96101        20.92932         1.21349
C         28.26629        23.08821         1.08136
C         27.00416        22.39011         1.42749
C         28.22660        24.44382         0.89750
C         26.97376        25.11655         0.37796
C         28.18390        27.34136         0.36270
C         26.96990        26.62469         0.35513
C         28.24231        28.74356         0.15950
C         27.02217        29.45628        -0.25245
C         28.18533        31.62352         0.30783
C         26.95615        30.92000        -0.09914
C         28.18552        33.12092         0.27976
C         26.96392        33.78743        -0.20922
C         28.27339        36.04594        -0.18096
C         27.06597        35.24500        -0.63720
C         28.28848        37.40519        -0.34871
C         27.02264        38.16074        -0.55829
C         28.22654        40.30022        -0.16426
C         26.99855        39.63155        -0.35068
C         28.24246        41.77215        -0.17907
C         26.94903        42.52320        -0.43272
C         28.02189        44.58456         0.56981
C         26.89838        43.91409         0.02230
C         27.74952        45.84561         1.20578
C         26.61979        46.63998         0.89395
C         28.43180        49.08858         1.40439
C         26.50379        48.00644         1.22270
C         28.20748        50.35659         0.90190
C         26.87305        51.01030         1.10248
C         28.08706        53.21355         0.51068
C         26.85907        52.51152         0.99461
C         28.04837        54.63606         0.34748
C         26.88464        55.39318         0.44870
C         26.86200        56.80490         0.30165
C         29.35031        12.39989        -0.36593
C         30.60782        14.56297        -0.03027
C         29.36034        13.77825         0.23220
C         30.62241        15.94197         0.15581
C         29.36997        16.66684         0.35736
C         30.66671        18.73439         0.71301
C         29.42572        18.08034         0.59961
C         30.69840        20.14707         1.10596
C         29.44610        20.92685         1.08541
C         30.75542        23.03769         0.95259
C         29.50875        22.33976         1.12134
C         30.75822        24.46453         0.85741
C         29.48397        25.19778         0.99967
C         30.70096        27.33415         0.36404
C         29.44650        26.68096         0.74401
C         30.69986        28.72772         0.09899
C         29.46121        29.43030         0.13048
C         30.73188        31.65106        -0.12332
C         29.51641        30.89334         0.25578
C         30.70745        33.02477        -0.13640
C         29.53210        33.85353         0.30171
C         30.71765        36.02833        -0.42903
C         29.56519        35.40546         0.30425
C         30.74744        37.48695        -0.50609
C         29.54377        38.16689        -0.30090
C         30.67085        40.32324         0.16188
C         29.48798        39.60514        -0.09768
C         30.61116        41.68202         0.73024
C         29.32658        42.47731         0.56437
C         30.57576        44.66008         0.77354
C         29.32762        43.95971         0.66972
C         30.66516        46.11703         0.79545
C         29.66777        46.92989         1.33797
C         30.66735        48.97552         0.40131
C         29.59254        48.32394         1.09807
C         30.53594        50.37188         0.13050
C         29.33957        51.07042         0.37433
C         29.22997        52.49518         0.19205
C         31.84747        16.67307         0.14215
C         33.13792        18.76936         0.35409
C         31.90244        18.05056         0.43505
C         33.23063        20.16270         0.51079
C         32.03563        20.89468         0.98866
C         33.19127        23.03707         0.51345
C         31.99046        22.34955         0.80416
C         33.18838        24.46192         0.43017
C         31.94106        25.16427         0.61016
C         33.06649        27.25816        -0.04439
C         31.89790        26.59532         0.37336
C         32.93888        28.54334        -0.59400
C         31.87076        29.39829        -0.33620
C         33.27247        31.62811        -0.38161
C         31.93036        30.87858        -0.74157
C         33.27693        33.11359        -0.58061
C         31.86558        33.76458        -0.70326
C         33.55741        36.23318        -0.71746
C         31.69954        35.20876        -0.89747
C         33.33652        37.57675        -0.36778
C         32.02468        38.25120        -0.61773
C         33.21074        40.35375         0.39077
C         31.97617        39.71584        -0.13364
C         33.17719        41.78668         0.74830
C         31.86426        42.49041         0.90640
C         33.04130        44.64449         0.41138
C         31.81349        43.95599         0.69019
C         33.01916        46.02755         0.12686
C         31.84468        46.79754         0.31234
C         31.81537        48.20110         0.10425
C         34.40932        20.90417         0.27124
C         35.64310        23.07085         0.20268
C         34.44039        22.32696         0.33379
C         35.66056        24.48781         0.20742
C         34.40486        25.15840         0.24507
C         35.65107        27.40195         0.38417
C         34.37031        26.63240         0.26629
C         35.71747        28.88358         0.23378
C         34.79750        29.63649        -0.40974
C         35.65539        31.78404         0.33230
C         34.51163        31.04166        -0.16120
C         35.58854        33.21607         0.37509
C         34.50073        33.90576        -0.19402
C         35.54370        36.05830         0.58107
C         34.53768        35.37068        -0.15677
C         35.36421        37.40709         0.87282
C         34.36474        38.23457         0.34044
C         35.68896        40.43086         0.56904
C         34.40928        39.68235         0.51405
C         35.62011        41.83138         0.38159
C         34.40409        42.55919         0.45644
C         34.29491        43.93977         0.32729
C         36.89028        25.26658         0.19039
C         38.12517        27.45755         0.34776
C         36.93105        26.65466         0.29653
C         38.13209        28.84080         0.58205
C         36.83629        29.56701         0.94572
C         38.06128        31.72509         0.85463
C         36.83832        31.06157         0.65762
C         38.04404        33.16252         1.12810
C         36.74786        33.90984         1.02025
C         38.11048        36.13405         0.88754
C         36.78777        35.41657         1.08885
C         38.21120        37.55310         0.58797
C         37.23918        38.49135         0.94135
C         36.98046        39.81580         0.50966
C         39.31768        29.61957         0.56610
C         40.51911        31.79605         0.59569
C         39.30317        31.01677         0.75285
C         40.54228        33.15574         0.61188
C         39.36103        33.94658         1.00439
C         39.26385        35.38315         0.73213
O         16.79987        16.89229         2.44943
O         28.83048        31.17103         1.53788
O         17.52797        31.07618        -1.79974
O         24.59099        44.19906         0.90582
O         27.94341        42.32163        -1.50838
O         31.53917        20.42636         2.28142
O         11.69717        29.27322         2.26011
O         10.41354        33.80964         1.67725
O         14.54396        25.91963        -0.98941
O         24.15027        31.17728        -2.14165
O         16.87745        38.50539         1.20055
O         23.29651        50.44939         1.48468
O         14.51113        21.55694        -0.71204
O         27.39590        48.50612         2.16458
O         34.87546        27.09455         1.60464
O         13.67845        30.88583        -1.34386
O         29.64590        41.81266         1.82966
O         25.37989        54.14025         2.02398
O         29.44959        26.15684         2.12982
O         15.29277        29.57872         1.77139
O         32.60460        33.28974        -1.89324
O         32.63015        42.07176         2.09488
O         18.24181        19.50528         2.77061
O         13.66484        38.15451        -1.91079
O         12.87210        41.12981        -1.43707
O         26.49408        22.98483         2.67247
O         19.82210        26.69273        -1.43456
O         28.81269        33.53794         1.53469
O         21.47966        48.78134        -2.28958
O         24.41611         8.97336        -2.88940
O         20.42868        15.89089        -1.44747
O         18.39177        14.72501         1.61274
O         12.35449        39.47754         1.75870
O         26.20951        37.79307        -1.75513
O         36.24087        37.98086         1.79447
O         21.34342        20.52082         2.79848
O         17.45650        50.85651        -2.14672
O         38.81375        33.52889         2.30354
O         17.06320        33.62342        -2.37790
O         26.92725        51.86468         2.30456
O         24.66404        34.63929        -2.07654
O         17.93113        27.15269         1.77333
O         16.37728        42.31891         1.40719
O         26.56233        28.94516        -1.54918
O         23.93420        14.82279        -1.92853
O         21.25732        31.10463        -2.21209
O         28.66144        46.32797         2.13125
O         16.06785        36.93914        -2.15087
O         22.15402        38.80748         1.44217
O         13.26065        23.97496         1.95724
O         32.07610        39.33862        -1.57510
O         32.69728        35.74785        -1.71360
O         13.64483        35.63583        -2.22399
O         19.15721        37.99455        -1.47359
O         24.16489        46.52999        -1.82055
O         20.66121        41.49126         1.51799
O         25.01134        18.94608        -0.80308
O          7.32076        31.04541        -0.14312
O         24.74277        38.85462         1.29102
O         16.13984        46.35449        -2.13683
O          9.87274        35.47598        -1.46305
O         26.43509        12.57193        -2.28703
O         36.49112        34.62745         2.27926
O         33.99623        29.00775        -1.36860
O         24.37794        21.59826         2.72203
O         23.37698        59.08345        -1.92749
H         23.36927        60.03932        -2.14739
O         25.71156        35.72705         1.26025
H         25.18557        36.44712         1.67044
O         14.09523        43.87644        -1.95765
H         13.49634        43.11526        -2.13310
O         22.27315        25.94344        -1.79145
H         21.38460        25.91011        -2.21954
O          6.57256        35.03158        -1.16203
H          7.38846        34.96191        -1.70085
O         29.74073        35.82281         1.68546
H         29.14827        35.26000         2.23627
O          9.38623        30.14312         2.66615
H         10.30796        30.16766         3.02633
O         36.66533        29.44296         2.38163
H         37.41961        29.89123         2.81825
O         21.77616         8.22880        -3.21909
H         22.64534         8.55333        -3.56014
O         19.54854        52.64756        -2.44327
H         18.77990        52.12841        -2.78974
O         22.97224        41.31321        -2.22786
H         23.01794        42.14007        -2.75236
O         15.22341        18.92263         2.90848
H         15.56489        18.12079         3.36813
O         27.20981        35.23336        -2.07177
H         26.33214        35.01608        -2.47751
O         31.75347        30.85243        -2.17027
H         32.01003        31.74180        -2.52071
O         12.35048        42.14701         2.03402
H         12.34912        41.13872         2.14565
O         26.99986        24.73838        -1.05872
H         26.30933        25.26271        -1.52138
O         25.31350        14.10080         1.34598
H         26.07276        14.34257         1.91971
O         21.03290        54.74880        -2.24027
H         20.38709        54.15938        -2.70030
O          7.44808        34.28308         2.30127
H          7.84187        33.51690         2.77033
O         14.45925        33.23306        -2.44593
H         15.39676        33.35722        -2.78908
O         20.27752        53.31872         1.09670
H         21.05335        53.62534         1.61273
O         11.92837        25.25060        -1.25122
H         12.79404        25.60748        -1.57258
O         17.92217        33.05371         1.13251
H         18.55236        32.47319         1.61075
O         29.33156        13.54914         1.71188
H         30.22171        13.23112         1.97543
O         19.47067        35.18179         1.44203
H         18.69041        34.62837         1.69618
H          4.65674        31.41793         1.77459
H          4.97142        33.71673         1.43808
H          7.37597        26.88195         1.10754
H          6.37195        29.03900         2.36630
H          6.10079        35.81393         0.69511
H          7.35276        37.99911         0.42936
H          9.77761        22.62950         0.89890
H          8.57007        24.78780         0.95607
H          8.56635        40.09653         0.32232
H          9.81213        42.27080         0.32103
H         12.22485        18.25069         0.68884
H         10.99668        20.42335         0.71328
H         11.19587        44.50268         0.74868
H         12.50702        46.63515         0.60765
H         14.72794        14.20536        -0.39744
H         13.53279        16.26758         0.08897
H         13.65057        48.74864         0.04427
H         14.86375        50.84423        -0.02461
H         17.22695         9.91302        -1.07549
H         15.95635        12.04608        -0.84751
H         16.11301        53.08132        -0.10247
H         17.34737        55.23193        -0.20503
H         19.68552         5.81096        -0.56652
H         18.45460         7.84346        -1.01799
H         18.56033        57.37405        -0.32436
H         19.77369        59.47253        -0.13666
H         23.05667         2.49066         0.20501
H         20.90891         3.70525        -0.14346
H         23.13782        62.81748         0.47480
H         20.99762        61.60420         0.18882
H         25.23362         3.63059        -0.13016
H         26.51382         5.65155        -0.66316
H         26.56762        59.47532         0.48563
H         25.29802        61.60837         0.58057
H         27.78620         7.74737        -1.06915
H         29.02272         9.78771        -0.99281
H         28.99130        55.14676         0.09856
H         27.81667        57.35183         0.27495
H         30.27545        11.80594        -0.28615
H         31.55240        14.02528        -0.20661
H         31.39530        50.91608        -0.28749
H         30.11319        53.04016        -0.17376
H         32.78155        16.13190        -0.07162
H         34.03985        18.20830         0.06485
H         33.94756        46.52711        -0.18583
H         32.70903        48.69455        -0.30454
H         35.33297        20.36346         0.01351
H         36.59497        22.52353         0.12509
H         36.55771        42.38984         0.23822
H         35.20215        44.53423         0.14079
H         37.83978        24.70990         0.14236
H         39.09523        26.95027         0.21431
H         39.11850        37.88785         0.06130
H         37.80970        40.42288         0.11343
H         40.27932        29.12444         0.35850
H         41.44077        31.24511         0.35451
H         41.46901        33.69220         0.35824
H         40.18639        35.89860         0.42069
