         480
 CSIRO Nanostructure Databank - Neutral Graphene Oxide Data Set
C         37.59788        50.11598         1.44926
C         36.69881        50.74363         2.24043
C         37.87063        52.87338         1.98947
C         36.82603        52.14693         2.50855
C         40.21160        48.99877         2.05755
C         40.06130        50.03070         1.11979
C         38.76777        50.80826         0.79922
C         40.00886        53.11812         0.81268
C         38.90004        52.30339         1.18135
C         40.16703        54.49197         1.22537
C         42.62829        48.88109         1.62688
C         41.46447        48.39339         2.24339
C         42.51234        49.99936         0.76836
C         41.21745        50.41925         0.43678
C         42.44267        53.14588         0.25162
C         41.17182        52.60084         0.14514
C         42.57338        54.51767         0.67633
C         41.35866        55.16223         1.09598
C         45.18430        46.10566         1.84416
C         43.99754        46.72810         1.79464
C         45.02543        48.76110         0.85130
C         43.98829        48.23761         1.88736
C         45.03726        50.29868         0.83656
C         43.68576        50.78848         0.29954
C         44.96645        52.95879         0.19848
C         43.63602        52.28686         0.01655
C         45.05867        54.42322         0.38477
C         43.81480        55.19890         0.59935
C         45.21790        57.19965         0.72467
C         43.98422        56.58600         0.83377
C         47.84173        44.68475         2.05310
C         47.78623        46.14653         1.83291
C         46.46116        46.87793         1.81523
C         47.51318        48.79665         0.60004
C         46.40783        48.19060         1.10046
C         47.35481        49.99776        -0.32978
C         46.19555        50.87918         0.05917
C         47.27797        52.91840        -0.94128
C         46.15683        52.18952        -0.25599
C         47.38718        54.37905        -0.50249
C         46.32562        55.09996         0.00014
C         47.60364        57.22636         0.05273
C         46.40027        56.52933         0.26822
C         47.81430        58.57459         0.51306
C         50.08690        44.51310         0.95366
C         48.89562        43.94685         1.67867
C         50.05428        46.03129         0.84080
C         48.94199        46.77402         1.15582
C         49.98962        48.76734         0.07235
C         48.89803        48.28655         0.99080
C         49.85019        50.00682        -0.68698
C         48.61742        50.82253        -0.55396
C         49.78863        52.91304        -1.32088
C         48.59122        52.15469        -0.84264
C         49.86050        54.36459        -1.15150
C         48.60677        55.08438        -0.95047
C         50.01006        57.24235        -0.79814
C         48.68569        56.58398        -0.70429
C         49.97616        58.71134        -0.67453
C         48.90728        59.29791         0.15543
C         52.64475        41.94683         1.77073
C         51.57668        42.71417         2.06775
C         52.55757        44.55496         0.65835
C         51.44551        44.13018         1.59762
C         52.49638        45.92023         0.25219
C         51.27144        46.67920         0.40013
C         52.42220        48.76671        -0.34345
C         51.18585        48.04420         0.01026
C         52.39821        50.10309        -0.92784
C         51.11786        50.70547        -1.25029
C         52.35806        52.93804        -1.46823
C         51.08894        52.16786        -1.55227
C         52.35565        54.34472        -1.57223
C         51.05090        55.11979        -1.72704
C         52.38143        57.28593        -1.40725
C         51.14130        56.57178        -1.23045
C         52.46832        58.67506        -1.27113
C         51.26129        59.47932        -0.97399
C         52.64276        61.48444        -0.69146
C         51.44917        60.86673        -0.51994
C         54.93000        40.14523         1.04738
C         54.53983        41.34696         0.33277
C         53.65596        42.32756         0.79497
C         54.83161        44.37358        -0.21432
C         53.65909        43.73072         0.33027
C         54.85359        45.77972        -0.44872
C         53.66980        46.52323        -0.28082
C         54.79898        48.62318        -1.21466
C         53.70533        47.98144        -0.44334
C         54.83095        50.09390        -1.26398
C         53.59737        50.80051        -1.16345
C         54.82681        52.90626        -1.50330
C         53.58204        52.22269        -1.39931
C         54.80875        54.32671        -1.50932
C         53.59046        55.03686        -1.56504
C         54.87687        57.22416        -1.65307
C         53.58607        56.51054        -1.92401
C         54.92537        58.68211        -1.99129
C         53.69469        59.40408        -1.46035
C         55.01229        61.50337        -1.55008
C         53.77197        60.77584        -1.24737
C         55.02424        62.95318        -1.77180
C         57.39737        39.68584         0.43748
C         56.11885        39.44619         1.08709
C         57.49598        41.67212        -0.59242
C         56.24846        42.36437        -0.63869
C         57.35502        44.46058        -0.14418
C         56.10289        43.69499        -0.33803
C         57.32150        45.85878        -0.60363
C         56.11287        46.46588        -0.78568
C         57.31709        48.64243        -1.47936
C         56.08654        47.84905        -1.32252
C         57.25887        49.99550        -1.72357
C         56.03217        50.75515        -1.57876
C         57.31702        52.87919        -1.75649
C         56.06267        52.18129        -1.61406
C         57.35551        54.28961        -1.62585
C         56.10473        55.00792        -1.32559
C         57.40834        57.20196        -1.65895
C         56.11597        56.54332        -1.34571
C         57.42528        58.60670        -1.74537
C         56.16715        59.33300        -1.36733
C         57.44758        61.53624        -1.95518
C         56.18341        60.80784        -1.67848
C         57.47370        62.95101        -1.38985
C         56.17961        63.64835        -1.76335
C         60.02139        37.96897         2.41736
C         58.82755        38.46004         2.01472
C         59.89644        40.08289         0.36563
C         58.65564        39.45644         0.97305
C         59.93586        41.52733        -0.06635
C         58.68632        42.25681        -0.22828
C         59.88422        44.42367        -0.49358
C         58.66561        43.73178        -0.10935
C         59.79163        45.69104        -1.28079
C         58.61960        46.55010        -0.83558
C         59.84455        48.53372        -1.90933
C         58.61955        47.96401        -1.30765
C         59.77588        49.95129        -2.34410
C         58.47966        50.71339        -2.16926
C         59.77541        52.84669        -2.06120
C         58.53769        52.17593        -1.99201
C         59.80748        54.27587        -1.97060
C         58.58283        54.98469        -1.76547
C         59.80950        57.09315        -2.13179
C         58.59279        56.42836        -1.81254
C         59.67757        58.45377        -2.48615
C         58.59838        59.27747        -2.14179
C         59.98683        61.49621        -1.72543
C         58.72553        60.78360        -2.17926
C         59.97195        62.84083        -1.37086
C         58.77676        63.69913        -1.78077
C         59.89114        65.60908        -0.58991
C         58.80183        65.07614        -1.18269
C         62.55609        36.38811         2.30727
C         62.53279        37.72312         1.88886
C         61.31963        38.62157         2.04588
C         62.46825        40.31810         0.63824
C         61.21803        39.54959         0.85207
C         62.42433        41.61034         0.07952
C         61.12795        42.23408        -0.13485
C         62.29755        44.29794        -1.06047
C         61.17433        43.75592        -0.20042
C         62.27326        45.75294        -1.40165
C         61.09585        46.45010        -1.41789
C         62.29166        48.49937        -2.23028
C         61.04262        47.84852        -1.85192
C         62.28009        49.94834        -2.68949
C         61.03129        50.71816        -2.32990
C         62.28307        52.81873        -2.12894
C         61.02299        52.09888        -2.21756
C         62.29356        54.22551        -1.98378
C         61.06411        54.98053        -2.01482
C         62.34153        57.09047        -1.79904
C         61.09612        56.40524        -2.04706
C         62.39040        58.51321        -1.46746
C         61.41587        59.46145        -1.92341
C         62.09830        61.21763        -0.38016
C         61.15202        60.70265        -1.38036
C         62.18912        62.67657        -0.21942
C         61.10803        63.46010        -0.68284
C         62.22654        65.44980         0.29953
C         61.09668        64.84935        -0.35202
C         62.26080        66.84162         0.60542
C         64.95923        36.25557         1.90615
C         63.74317        35.65831         2.29102
C         64.95108        37.61166         1.46694
C         63.72281        38.32888         1.42057
C         64.91461        40.33213         0.54013
C         63.70067        39.68357         0.89745
C         64.88622        41.66548         0.01799
C         63.63987        42.29362        -0.19615
C         64.84277        44.46736        -0.89729
C         63.60462        43.58690        -0.92762
C         64.80930        45.58987        -1.94055
C         63.50393        46.34837        -1.99206
C         64.74345        48.50766        -2.57537
C         63.46532        47.79988        -2.29012
C         64.75665        49.97585        -2.33358
C         63.54786        50.67730        -2.31197
C         64.75091        52.76747        -1.87692
C         63.51795        52.08809        -2.12304
C         64.75206        54.18301        -1.63988
C         63.53713        54.90764        -1.75047
C         64.75640        56.96993        -1.18737
C         63.53192        56.33033        -1.56736
C         64.75204        58.40476        -0.90043
C         63.45468        59.06327        -0.75873
C         64.51978        61.02545         0.49243
C         63.31735        60.35637        -0.08833
C         64.50976        62.48978         0.68037
C         63.35298        63.25680         0.38769
C         64.50975        65.26812         1.27719
C         63.36893        64.66802         0.64342
C         64.50338        66.66944         1.56437
C         63.35563        67.42197         1.21256
C         67.48334        33.46987         2.37862
C         66.27498        34.17485         2.33598
C         67.43241        36.23407         1.71141
C         66.22605        35.55035         1.99765
C         67.41758        37.56232         1.20992
C         66.17385        38.25887         1.08702
C         67.36254        40.25475         0.26767
C         66.14979        39.61187         0.64062
C         67.33875        41.63728        -0.11076
C         66.13516        42.34891        -0.28162
C         67.32674        44.41387        -1.01615
C         66.14645        43.70617        -0.78929
C         67.36456        45.72678        -1.62413
C         66.14536        46.22733        -2.38103
C         67.29327        48.55377        -2.26211
C         66.05655        47.76417        -2.50488
C         67.26915        49.92292        -2.21987
C         65.99773        50.65182        -2.15118
C         67.19348        52.69766        -1.39265
C         65.96506        52.03152        -1.86582
C         67.18936        54.14603        -1.15577
C         65.98210        54.85727        -1.29333
C         67.18059        56.91675        -0.57102
C         65.96380        56.26644        -1.03131
C         67.18035        58.25489        -0.12210
C         65.97819        59.05583        -0.33549
C         67.11378        61.10692         0.57244
C         65.83136        60.32101         0.44418
C         66.88419        62.35420         1.38155
C         65.69360        63.08988         1.22706
C         66.82500        65.09777         2.17927
C         65.65547        64.48560         1.59391
C         66.81589        66.52577         2.46276
C         65.66318        67.29206         2.17087
C         66.79817        69.29398         2.99728
C         65.68262        68.68467         2.46852
C         70.02416        32.05627         2.78426
C         69.96774        33.39498         2.32454
C         68.71259        34.10290         2.21209
C         69.94171        36.15237         1.39242
C         68.74279        35.61095         2.12744
C         69.89422        37.44554         0.81527
C         68.63540        38.19776         0.77784
C         69.79278        40.14785        -0.28459
C         68.58560        39.51257         0.29019
C         69.86676        41.61323        -0.34558
C         68.61753        42.36261        -0.16669
C         69.87317        44.41683        -1.05555
C         68.60981        43.82816        -0.59080
C         69.85117        45.74879        -1.54549
C         68.56826        46.38668        -1.82362
C         69.86378        48.53809        -2.41904
C         68.56779        47.78157        -2.34775
C         69.83373        50.00887        -2.21827
C         68.53351        50.75332        -2.46130
C         69.74139        52.83765        -1.51166
C         68.51940        52.02300        -1.62442
C         69.69454        54.11803        -1.00420
C         68.41684        54.81504        -0.85495
C         69.67534        56.97044        -0.40654
C         68.40022        56.17885        -0.54194
C         69.57254        58.16687         0.52658
C         68.30779        58.87262         0.54949
C         69.31835        60.76882         1.81006
C         68.21967        60.17927         1.05172
C         69.30256        62.22012         2.09376
C         67.93162        62.83114         2.33748
C         69.13936        64.88812         3.18897
C         67.94322        64.32972         2.47535
C         69.15190        66.39403         3.30690
C         67.97400        67.15662         3.02463
C         69.17108        69.19169         3.80042
C         67.97995        68.55704         3.27801
C         69.21218        70.58232         4.07828
C         72.43520        32.07367         2.65820
C         71.23909        31.40384         2.94650
C         72.40230        33.38318         2.18391
C         71.18388        34.06040         1.99360
C         72.29889        35.96855         0.83407
C         71.14319        35.40948         1.41471
C         72.27407        37.25142         0.30626
C         71.08977        38.00260         0.29322
C         72.32836        40.17084        -0.28656
C         71.10004        39.36746        -0.28937
C         72.29885        41.50759        -0.52035
C         71.06411        42.26085        -0.60448
C         72.28247        44.33022        -1.30446
C         71.08196        43.68711        -0.93982
C         72.27585        45.65609        -1.71541
C         71.08254        46.38362        -1.82655
C         72.17624        48.58609        -1.41672
C         71.20926        47.82242        -2.28804
C         72.09691        49.92316        -1.30365
C         70.95858        50.67371        -1.81849
C         72.22552        52.82545        -1.28637
C         71.03193        52.18854        -1.94460
C         72.16221        54.04312        -0.71039
C         70.92809        54.80879        -0.63624
C         72.07743        56.81904         0.27000
C         70.90808        56.12579        -0.19627
C         72.00663        58.08959         0.77473
C         70.74524        58.76292         0.97135
C         71.86500        60.93110         1.78000
C         70.70113        60.03930         1.71912
C         71.74474        62.24557         2.10423
C         70.47031        62.89635         2.33558
C         71.58865        64.92242         3.43591
C         70.45881        64.40069         2.56862
C         71.49626        66.15009         3.98231
C         70.31582        66.99454         3.77323
C         71.51618        69.06177         4.50368
C         70.34642        68.41491         4.02828
C         71.52623        70.42089         4.76234
C         70.36399        71.18577         4.55186
O         43.66797        51.30407        -1.05929
O         63.96036        45.45005        -3.09752
O         60.65356        39.08502        -0.40979
O         41.07235        51.39656        -0.56866
O         69.21170        48.06203        -3.65664
O         69.86737        59.97335         2.90504
O         57.99753        61.37872        -3.31442
O         50.18634        59.37466        -1.97719
O         65.04908        60.24842         1.65666
O         65.66333        59.23840        -1.77316
O         53.40682        48.70694         0.78500
O         62.17801        60.41997         0.85041
O         47.29276        46.88931         3.02277
O         62.79169        43.45606        -2.14377
O         68.66898        43.44609         0.83093
O         67.85236        51.88718        -0.33069
O         65.44315        48.12080        -3.80174
O         58.89528        47.59260         0.13617
O         50.27387        49.87592        -2.09768
O         58.91342        50.24337        -3.50482
O         58.01346        44.24790         1.17569
O         50.24245        52.49253        -2.69322
O         55.15100        47.96635        -2.46499
O         48.29097        56.06954        -2.04622
O         60.75727        59.08963        -3.10290
O         57.38601        40.30117        -0.83036
O         70.28989        39.48648        -1.50568
O         45.21765        53.46844         1.56779
O         55.13335        41.57234        -0.92945
O         56.13727        55.77674        -0.07241
O         71.81008        47.79804        -3.61122
H         71.07421        47.63315        -4.24439
O         70.56284        65.02644         1.26335
H         71.41360        64.75556         0.86082
O         69.11347        64.34949         4.55782
H         68.42081        64.83540         5.05374
O         44.58342        48.31328        -0.44664
H         45.25729        48.60481        -1.10853
O         55.99900        59.19660         0.07562
H         56.87011        59.32031         0.50655
O         67.49882        61.54353        -0.77405
H         67.32970        60.80278        -1.39791
O         57.50577        62.83647         0.05761
H         56.64554        62.46770         0.35072
O         58.80144        63.90053        -3.21089
H         58.62879        63.02405        -3.63942
O         51.54411        44.96543         2.78601
H         52.42582        44.82417         3.18917
O         49.15797        48.86393         2.31359
H         48.57424        48.37229         2.94398
O         64.74346        45.21074         0.36729
H         64.76841        44.56754         1.10796
O         68.46884        51.16109        -3.84960
H         68.60609        50.35729        -4.39691
O         46.95391        52.95933        -2.36149
H         47.70198        53.39061        -2.82948
O         67.54148        62.31113         3.66718
H         68.18963        62.69618         4.30756
O         71.17982        52.43069        -3.38317
H         71.13489        53.39907        -3.52883
O         54.97523        58.83971        -3.42975
H         54.33781        58.18798        -3.81142
O         68.93456        36.05540         3.53637
H         68.18247        35.69428         4.05317
O         47.00700        49.41636        -1.63082
H         46.99678        50.14355        -2.29173
O         69.86791        57.57912        -1.74595
H         70.72162        58.06234        -1.72054
O         50.10434        43.95580        -0.38382
H         49.26897        44.20086        -0.83265
O         66.40580        45.72778        -3.71285
H         65.66736        46.04786        -4.28090
O         53.40845        56.52797        -3.39966
H         52.51482        56.12567        -3.57723
O         59.42333        45.29268        -2.65505
H         60.18931        44.82258        -3.05150
O         61.64158        39.52367         3.16019
H         61.78311        38.97461         3.95967
O         45.16932        50.77274         2.20296
H         45.30652        51.75043         2.20164
O         44.39273        48.52067         3.23897
H         44.65189        49.47106         3.29002
O         50.84430        55.28892        -3.17797
H         49.94351        55.68228        -3.27693
O         38.52099        50.71846        -0.62472
H         39.33601        51.03036        -1.08550
O         61.55466        44.16621         1.17583
H         60.73772        44.15628         1.72160
O         62.26272        49.86831        -4.15419
H         62.13648        50.77403        -4.50734
H         37.46748        49.05246         1.20053
H         35.84867        50.19320         2.66814
H         37.91293        53.94490         2.22845
H         36.07038        52.64515         3.13116
H         39.34627        48.64423         2.63600
H         39.31131        55.04277         1.63791
H         41.54682        47.54502         2.93732
H         41.39817        56.21634         1.40316
H         45.23590        45.00640         1.84139
H         43.05721        46.15791         1.76244
H         45.26786        58.28076         0.91080
H         43.11392        57.20454         1.09372
H         47.00487        44.21575         2.59095
H         47.04728        59.04974         1.14016
H         48.88775        42.86118         1.85964
H         48.98743        60.34905         0.46452
H         52.69395        40.93269         2.19356
H         50.82363        42.33992         2.77683
H         52.76387        62.54030        -0.41008
H         50.58133        61.42963        -0.14989
H         54.20154        39.80922         1.80357
H         54.07162        63.46169        -1.98072
H         56.14675        38.66629         1.86617
H         56.17656        64.73236        -1.94773
H         60.03922        37.16738         3.17146
H         57.91489        37.98469         2.40558
H         59.83536        66.64596        -0.23124
H         57.90776        65.70164        -1.32192
H         61.63317        35.90090         2.65168
H         61.41158        67.48608         0.34499
H         63.71735        34.61277         2.62482
H         63.32353        68.50119         1.41087
H         67.43844        32.38303         2.53474
H         65.34497        33.61581         2.49978
H         66.76143        70.37350         3.19375
H         64.79772        69.30237         2.26817
H         69.09884        31.52419         3.04341
H         68.32057        71.20289         3.91755
H         73.39939        31.56709         2.80228
H         71.26188        30.36918         3.31551
H         73.35478        33.88493         1.96690
H         73.23706        35.40037         0.79510
H         73.19167        37.66672        -0.13170
H         73.28879        39.68330        -0.06699
H         73.25247        42.05198        -0.53755
H         73.24052        43.79704        -1.26443
H         73.22294        46.13957        -1.99120
H         73.02408        48.04363        -0.97405
H         72.86507        50.46509        -0.73401
H         73.20471        52.33883        -1.40031
H         73.08649        54.49042        -0.31873
H         73.05193        56.31206         0.26654
H         72.92619        58.56747         1.13920
H         72.85042        60.54189         1.48531
H         72.65337        62.86598         2.12489
H         72.49919        64.32275         3.58184
H         72.33375        66.54011         4.57825
H         72.43364        68.48224         4.67222
H         72.44088        70.90443         5.13232
H         70.37334        72.26457         4.76011
