         232
 CSIRO Nanostructure Databank - Neutral Graphene Oxide Data Set
C        -11.25790         0.67948         0.05993
C        -10.03720         1.44673        -0.20875
C         -8.88968         0.60863        -0.79627
C         -7.54861         1.37533        -0.83532
C         -6.27281         0.67599        -0.49568
C         -5.06524         1.39893        -0.54277
C         -3.75285         0.72596        -0.20563
C         -2.51681         1.37446        -0.78679
C         -1.23270         0.66145        -0.55985
C         -0.00150         1.41488        -0.58926
C          1.24102         0.68210        -0.50522
C          2.47117         1.41531        -0.66319
C          3.75322         0.65792        -0.89976
C          4.94725         1.43020        -0.36628
C          6.17387         0.69048        -0.01543
C          7.50287         1.35204        -0.30962
C          8.54077         0.55732         0.42873
C         10.38702         1.68300         0.40947
C         11.45820         0.68541         0.27048
C         -9.99956         2.80148        -0.11667
C         -8.90064         3.64890        -0.74841
C         -7.56950         2.87639        -0.76701
C         -6.32526         3.52678        -0.25461
C         -5.03363         2.83073        -0.52356
C         -3.82740         3.51289        -0.43744
C         -2.53530         2.86997        -0.75250
C         -1.25204         3.59349        -0.60484
C          0.00257         2.83839        -0.69072
C          1.24440         3.52940        -0.71318
C          2.47788         2.81274        -0.73900
C          3.76001         3.57908        -0.93015
C          5.07735         2.86681        -0.75875
C          6.34271         3.57877        -0.37705
C          7.54183         2.85623        -0.15861
C          8.78772         3.55468        -0.03081
C         10.10855         2.87999        -0.17157
C         -8.78698         5.08428        -0.24272
C         -7.61358         5.76021        -0.06631
C         -6.34432         4.98891         0.01742
C         -5.06016         5.71057        -0.19964
C         -3.80620         4.92245        -0.01011
C         -2.50954         5.66604         0.03601
C         -1.26768         4.94264        -0.33660
C         -0.03559         5.72968        -0.48068
C          1.26431         5.00561        -0.73131
C          2.51244         5.74690        -0.44244
C          3.75933         5.07409        -0.78122
C          5.10660         5.77654        -0.44991
C          6.33236         4.98380        -0.25440
C          7.53192         5.67462         0.09841
C          8.75227         4.94602         0.11236
C         -7.50055         7.18867         0.21753
C         -6.30159         7.86951         0.25706
C         -5.02829         7.19751        -0.10840
C         -3.71660         7.86526         0.10669
C         -2.54866         7.15502         0.02590
C         -1.26408         7.84953         0.27345
C          0.01792         7.10419         0.08884
C          1.29854         7.83633         0.06002
C          2.49776         7.11286        -0.08504
C          3.74205         7.71231         0.54153
C          5.05776         7.10825         0.13833
C          6.25584         7.75786         0.47596
C          7.48708         7.07361         0.36814
C         -6.18644         9.26137         0.64026
C         -4.98917         9.91108         0.73389
C         -3.70138         9.29120         0.44976
C         -2.51678         9.97921         0.55051
C         -1.22996         9.34818         0.06603
C          0.08289         9.93880         0.52646
C          1.27416         9.24230         0.41519
C          2.55830         9.90369         0.61926
C          3.74363         9.22072         0.59592
C          5.02135         9.86360         0.83042
C          6.19292         9.17024         0.83424
C        -11.27017        -0.66457         0.22899
C        -10.00661        -1.41230         0.42970
C         -8.73069        -0.68077         0.06698
C         -7.47668        -1.45682        -0.01908
C         -6.28624        -0.71881        -0.21682
C         -4.99851        -1.39685         0.02376
C         -3.77815        -0.74164        -0.51005
C         -2.48842        -1.47797        -0.46154
C         -1.24503        -0.69852        -0.34068
C         -0.01955        -1.42152         0.13511
C          1.24698        -0.70607        -0.25931
C          2.52799        -1.40423         0.12862
C          3.76216        -0.78080        -0.44743
C          4.93447        -1.49269        -0.42479
C          6.20127        -0.82763         0.03157
C          7.50921        -1.49914        -0.24008
C          8.69748        -0.77035         0.13310
C         10.02135        -1.48701         0.01814
C         11.27391        -0.66145         0.30708
C         -9.92775        -2.87049         0.46874
C         -8.71200        -3.55490         0.48418
C         -7.47765        -2.81479         0.37103
C         -6.21969        -3.53306         0.63024
C         -4.92554        -2.82308         0.41532
C         -3.67938        -3.58462         0.14654
C         -2.50355        -2.92138        -0.13820
C         -1.23591        -3.61374        -0.21731
C         -0.04906        -2.90697        -0.19869
C          1.22046        -3.66659        -0.14882
C          2.51631        -2.93492        -0.02459
C          3.76544        -3.65010        -0.42560
C          4.95109        -2.94232        -0.47205
C          6.27016        -3.61252        -0.66775
C          7.52176        -2.90907        -0.28575
C          8.68890        -3.64604         0.08142
C          9.89765        -2.89070         0.65419
C         -8.66627        -5.01184         0.49536
C         -7.49957        -5.74813         0.44593
C         -6.20074        -5.04700         0.58979
C         -4.93981        -5.71821         0.23237
C         -3.72973        -5.03459         0.14217
C         -2.47374        -5.73094        -0.04192
C         -1.26676        -5.06980        -0.19385
C         -0.01957        -5.81755        -0.29654
C          1.21479        -5.06511        -0.74925
C          2.51598        -5.79886        -0.50493
C          3.71325        -5.09295        -0.54654
C          4.97530        -5.83721        -0.76798
C          6.29078        -5.11001        -0.73968
C          7.48431        -5.81951        -0.19958
C          8.64588        -5.03285         0.14973
C         -7.44776        -7.19426         0.45399
C         -6.26247        -7.88624         0.33925
C         -4.99472        -7.19307        -0.11484
C         -3.74522        -7.84180         0.51553
C         -2.46489        -7.23877        -0.07887
C         -1.20911        -7.82272         0.57533
C          0.02889        -7.15854         0.00423
C          1.26911        -7.89554         0.00768
C          2.49952        -7.22894        -0.27557
C          3.70923        -7.95734        -0.16076
C          4.97423        -7.33684        -0.60280
C          6.30984        -8.07327        -0.44352
C          7.42672        -7.16764         0.04825
C         -6.17768        -9.32247         0.44655
C         -4.98826       -10.01173         0.42823
C         -3.70860        -9.35074         0.40838
C         -2.49684       -10.01159         0.43265
C         -1.21846        -9.33332         0.44851
C         -0.01053        -9.98749         0.44791
C          1.25516        -9.27972         0.34322
C          2.48258        -9.94510         0.53987
C          3.70443        -9.28429         0.33103
C          4.98320        -9.91547         0.64267
C          6.16883        -9.33103         0.38102
O         -2.39634        -7.64064        -1.48068
H         -1.62759        -7.18485        -1.88655
O          3.61019         7.28897         1.96024
H          2.77618         7.68057         2.30265
O         -1.20816        -7.51046         1.99951
H         -0.38155        -7.87058         2.38461
O          1.10589        -4.87066        -2.19527
H          1.48578        -5.65600        -2.64244
O         -0.59024         7.27119         1.43387
O          3.93006         0.57254        -2.34815
H          3.97472         1.49922        -2.69367
O         -6.37132         4.02975         1.12922
O         -2.63616         2.08904        -2.02616
O         -9.32801         3.81803        -2.12635
H         -9.03274         3.00862        -2.61058
O         -3.58051         0.85482         1.23411
H         -4.12689         0.17501         1.69045
O         -4.76552        -1.75876         1.44347
O          1.89546        -3.58009         1.15075
O          9.39092         1.21037         1.30160
O         -3.22958        -1.19478        -1.75601
O         -3.85805        -7.50838         1.91347
H         -2.97603        -7.63108         2.33917
O          4.85915        -6.73527        -1.93629
O          4.55740         3.14812        -2.09824
O         -0.06265        -1.35490         1.60536
H          0.84458        -1.57799         1.93433
O         -5.08421         6.50262        -1.42317
O          6.46403        -4.31893        -1.95731
O         -5.02238        -7.30995        -1.55704
H         -4.09240        -7.39069        -1.88431
O          4.53149         5.74596        -1.81881
O         -1.24116         9.49712        -1.40019
H         -1.28697        10.45418        -1.60699
O          6.73206        -8.51766        -1.76287
H          6.38638        -7.84788        -2.40004
O         -3.13365         5.12775         1.27672
O          6.32237        -1.27607         1.39320
O          0.50982         5.63996        -1.83695
O         10.16786        -1.76126        -1.41081
H         10.00848        -0.92846        -1.90377
O         -7.35560         2.20007        -2.03470
O         -9.17481        -0.66683         1.43547
O          7.77368         1.06810        -1.72828
H          7.17212         1.62110        -2.27292
O          5.33452         1.25947         1.03083
O         -9.23191         0.22534        -2.08206
O         -6.17342        -4.31066         1.86773
O          9.71631        -2.77741         2.06749
H          8.87013        -2.30789         2.23225
O          2.67245        -1.13221         1.57301
H          3.59352        -1.35965         1.83559
H         12.19384        -1.26899         0.25129
H         12.49512         1.05951         0.22533
H         10.85274         3.37669        -0.81208
H          9.69219         5.49645         0.26463
H          8.42436         7.60746         0.58175
H          7.13874         9.69048         1.04487
H          5.02446        10.94680         1.02538
H          2.55951        10.99343         0.77912
H          0.11568        11.01104         0.77754
H         -2.52223        11.04238         0.83878
H         -4.97962        10.96871         1.03824
H         -7.11233         9.80609         0.87974
H         -8.43008         7.74222         0.42516
H         -9.73076         5.65316        -0.24515
H        -10.89960         3.33439         0.23333
H        -12.21300         1.22775         0.04118
H        -12.22143        -1.20640         0.33809
H        -10.86591        -3.44456         0.40953
H         -9.63123        -5.54184         0.48827
H         -8.38599        -7.74505         0.62908
H         -7.11762        -9.88676         0.55237
H         -5.00451       -11.11164         0.47873
H         -2.48516       -11.11359         0.40531
H          0.01820       -11.08805         0.47092
H          2.48379       -10.99737         0.85976
H          4.95324       -10.88540         1.16237
H          7.10213        -9.84239         0.66143
H          8.31848        -7.66474         0.46227
H          9.52585        -5.57523         0.52839
H         10.83333        -3.47673         0.47900
