         658
 CSIRO Nanostructure Databank - Neutral Graphene Oxide Data Set
C          5.85906        31.70666         0.16595
C          5.83050        33.07108         0.05641
C          8.34010        27.40014         0.79418
C          8.29590        28.84213         0.74864
C          7.10904        29.54279         0.47932
C          8.27850        31.68386         0.57628
C          7.08023        30.96111         0.40938
C          8.23913        33.15523         0.59417
C          7.01925        33.87811         0.20723
C          8.32101        35.98014        -0.10214
C          7.07706        35.24502        -0.01177
C          8.35244        37.38757        -0.30460
C         10.83902        23.14094         1.04283
C         10.77826        24.57612         1.23380
C          9.58510        25.27420         1.09628
C         10.71295        27.48158         1.45839
C          9.49951        26.71004         1.10023
C         10.74921        28.92595         1.17719
C          9.52052        29.58144         0.91015
C         10.76056        31.68495         0.71294
C          9.51163        30.99879         0.77459
C         10.75182        33.05502         0.18802
C          9.55750        33.90025         0.41340
C         10.80101        35.92260        -0.36363
C          9.55264        35.28378        -0.05996
C         10.81020        37.35563        -0.57206
C          9.56660        38.08338        -0.46534
C         10.81747        40.20980        -0.62494
C          9.61373        39.50790        -0.50328
C         10.86743        41.63055        -0.51487
C         13.20947        18.89303         0.16822
C         13.21772        20.29463         0.68642
C         12.06133        21.01973         0.79221
C         13.26087        23.14301         1.61766
C         12.01651        22.43154         1.10795
C         13.23668        24.61885         1.26059
C         12.04723        25.28757         1.34232
C         13.28468        27.53576         1.46564
C         12.03850        26.75338         1.55877
C         13.23048        28.93858         1.39353
C         11.97722        29.62645         1.18989
C         13.24739        31.74656         0.74683
C         11.98777        31.02648         0.87773
C         13.29657        33.07935         0.31478
C         12.05191        33.75444        -0.07630
C         13.27682        35.81026        -0.65615
C         12.01070        35.21244        -0.26823
C         13.26484        37.33277        -1.00103
C         12.01425        38.05165        -0.77105
C         13.28107        40.15919        -0.99021
C         12.06783        39.48374        -0.78268
C         13.25168        41.63967        -1.31080
C         12.05655        42.33859        -0.69683
C         13.34377        44.42698        -0.47894
C         12.13089        43.71007        -0.39707
C         13.40194        45.78834        -0.12407
C         15.86205        14.63839        -0.54307
C         15.80590        16.05776        -0.31290
C         14.58492        16.70446        -0.18476
C         15.77953        18.89316         0.15159
C         14.50705        18.16529        -0.07305
C         15.76080        20.22888         0.49874
C         14.53573        20.91376         0.95801
C         15.79420        23.16370         1.07490
C         14.57756        22.40292         1.32974
C         15.77456        24.63889         1.02771
C         14.49058        25.38496         1.11094
C         15.74934        27.50520         1.58623
C         14.53670        26.83342         1.42816
C         15.65015        28.96948         2.00168
C         14.46038        29.69609         1.39698
C         15.74402        31.78115         0.91043
C         14.46373        31.04777         1.09855
C         15.73025        33.23577         0.73205
C         14.52043        33.87258         0.31111
C         15.68764        36.14372         0.04889
C         14.52268        35.19034        -0.17170
C         15.77141        37.21330        -1.09446
C         14.52766        38.06906        -1.02856
C         15.70412        40.20838        -1.70941
C         14.52794        39.44910        -1.09905
C         15.79322        41.66007        -1.25664
C         14.56660        42.36067        -1.08208
C         15.78551        44.50188        -0.90174
C         14.57270        43.74175        -0.82931
C         15.77489        45.92004        -0.77517
C         14.55881        46.57576        -0.28557
C         15.35031        48.93487        -0.19167
C         14.49887        47.91247         0.24051
C         15.79405        50.11812         0.42023
C         18.35197        10.31136        -0.95576
C         18.27025        11.75215        -0.50827
C         17.04647        12.48986        -1.07715
C         18.29084        14.68605        -0.61806
C         17.05678        13.96920        -0.72256
C         18.30388        16.07364        -0.36323
C         17.05523        16.79868        -0.24422
C         18.26687        18.91181         0.16047
C         17.02996        18.18928        -0.02773
C         18.27710        20.25602         0.45403
C         17.01097        21.00723         0.42338
C         18.34665        23.26892         0.62257
C         17.00918        22.50412         0.58924
C         18.30119        24.58070         1.39312
C         17.00660        25.33605         1.49597
C         18.25666        27.44838         1.74648
C         17.01677        26.81102         1.61615
C         18.29384        28.92404         1.94123
C         16.99853        29.70126         1.90144
C         18.29790        31.80393         1.21975
C         17.04570        31.06392         1.26441
C         18.29502        33.22782         0.92852
C         16.97090        33.99670         0.80871
C         18.28864        35.99163        -0.26197
C         17.01644        35.42545         0.29150
C         18.26816        37.25834        -1.05747
C         17.03626        38.03070        -1.08558
C         18.27053        40.17895        -1.03222
C         17.08537        39.42477        -1.67656
C         18.31810        41.70952        -0.98005
C         16.99249        42.37451        -1.25869
C         18.25279        44.49816        -1.20035
C         17.01681        43.80283        -1.14289
C         18.26927        45.90140        -1.07811
C         17.02248        46.59709        -0.95988
C         18.24062        48.75140        -0.92065
C         17.09114        48.00381        -1.10397
C         18.13952        50.27019        -0.84227
C         16.98007        50.82019         0.03988
C         18.24984        52.93335         0.41621
C         17.05577        52.14970         0.45298
C         18.27435        54.26664         0.74885
C         20.62260         6.40442        -2.83963
C         20.65463         7.77226        -2.18745
C         19.60187         8.27571        -1.49766
C         20.76245        10.30328        -0.46348
C         19.53204         9.62843        -0.90620
C         20.82308        11.75278        -0.57269
C         19.56646        12.46960        -0.87542
C         20.83500        14.66745        -0.49452
C         19.57316        13.98394        -0.82401
C         20.80253        16.07642        -0.27900
C         19.55990        16.75880        -0.27180
C         20.83773        18.92056         0.20717
C         19.54727        18.21625        -0.10707
C         20.80219        20.17352         1.05733
C         19.48545        20.94098         0.97801
C         20.81717        23.14536         1.24327
C         19.50653        22.42667         1.15810
C         20.80415        24.61869         1.30292
C         19.55326        25.35132         1.37017
C         20.75058        27.47914         1.36925
C         19.51089        26.74250         1.54114
C         20.78896        28.85590         1.32125
C         19.58818        29.64163         1.67208
C         20.76382        31.63912         0.55123
C         19.58146        31.10672         1.35275
C         20.80091        33.13693         0.52732
C         19.50899        33.79591         0.24652
C         20.89110        35.82123        -0.65949
C         19.52373        35.14152        -0.38616
C         20.82983        37.33730        -0.59495
C         19.62743        37.95551        -1.17520
C         20.89525        40.08798        -1.40573
C         19.56608        39.44698        -1.04667
C         20.84071        41.61129        -1.56233
C         19.52807        42.33564        -1.67663
C         20.79470        44.53357        -1.35237
C         19.50025        43.86297        -1.77834
C         20.77659        45.94272        -1.27739
C         19.50091        46.65258        -1.17744
C         20.67866        48.86122        -1.29246
C         19.47285        48.05014        -1.02501
C         20.66918        50.27490        -0.82944
C         19.48796        50.86346        -0.45415
C         20.69583        53.02637        -0.15763
C         19.55402        52.15144         0.33913
C         20.72297        54.41624         0.36092
C         19.56049        54.90484         1.22400
C         20.72147        57.15450         1.25650
C         19.56263        56.41770         1.30375
C         20.75553        58.58912         1.41377
C         23.13991         3.53139        -2.74848
C         21.95062         4.28059        -2.89496
C         23.13569         6.30692        -2.26305
C         21.93172         5.64971        -2.66139
C         23.16734         7.71375        -2.00771
C         21.95565         8.49582        -2.42554
C         23.22999        10.26526        -0.34424
C         21.93588         9.60213        -0.18030
C         23.21365        11.70025         0.12306
C         21.98270        12.45795        -0.32870
C         23.24815        14.56152         0.00607
C         22.02807        13.90492        -0.29110
C         23.35203        16.05396        -0.18323
C         22.04319        16.78373        -0.01026
C         23.32740        18.82859         0.59553
C         22.08481        18.12856         0.29377
C         23.32644        20.31364         0.61268
C         22.01331        21.03597         0.72106
C         23.31560        23.20102         0.91707
C         21.99227        22.46999         1.07514
C         23.24725        24.49967         1.72076
C         22.00335        25.28914         1.35266
C         23.25892        27.50135         1.38018
C         22.01438        26.74374         0.98108
C         23.27620        28.86300         1.33800
C         22.03148        29.58463         1.16636
C         23.26523        31.70174         1.00556
C         22.04635        30.96564         0.97074
C         23.20780        33.17330         0.98773
C         21.97574        33.86471         0.54098
C         23.21526        35.99844         0.26114
C         22.01437        35.24609         0.18094
C         23.19921        37.41895         0.04287
C         21.96629        38.09408        -0.30445
C         23.17513        40.27478        -0.46343
C         22.02683        39.53314        -0.58081
C         23.22101        41.70043        -0.80214
C         22.06919        42.38158        -1.24661
C         23.23180        44.54453        -0.96157
C         22.02220        43.81794        -1.22566
C         23.22898        45.97303        -1.03353
C         22.00864        46.66034        -1.24188
C         23.26554        48.88602        -1.46074
C         21.97638        48.12280        -1.47105
C         23.21127        50.41743        -1.41877
C         21.94707        51.00614        -0.79297
C         23.19187        53.18211        -0.78363
C         21.95800        52.34277        -0.51298
C         23.25377        54.51169        -0.05126
C         22.04810        55.04286         0.61684
C         23.28226        57.26211         0.96956
C         22.03314        56.45713         1.12336
C         23.09339        58.70368         0.52551
C         21.90729        59.34566         1.21809
C         23.14032        61.46409         1.27105
C         21.95947        60.74219         1.46071
C         24.30991         4.14422        -2.34893
C         25.52690         6.19952        -1.69218
C         24.33611         5.54385        -2.08819
C         25.54302         7.56813        -1.38771
C         24.31206         8.31520        -1.47204
C         25.60355        10.44232        -1.17234
C         24.31553         9.68353        -0.94632
C         25.66168        11.77633        -0.47404
C         24.48306        12.44134        -0.15163
C         25.73140        14.50294         0.25366
C         24.48108        13.83897         0.10101
C         25.72102        15.87984         0.81135
C         24.46658        16.66694         0.64959
C         25.77599        18.83232         1.00085
C         24.51566        18.14767         0.74894
C         25.77632        20.22468         1.14539
C         24.57232        21.01277         1.03272
C         25.77267        23.12173         1.62758
C         24.53277        22.36689         1.31084
C         25.80157        24.56900         1.35796
C         24.53908        25.29475         1.64308
C         25.76735        27.47717         1.15124
C         24.53121        26.77552         1.55434
C         25.78011        28.84293         1.10919
C         24.56584        29.61956         1.58582
C         25.71838        31.75890         0.85856
C         24.51109        31.05628         1.10867
C         25.74176        33.15851         0.73156
C         24.50824        33.93791         0.92435
C         25.67088        36.03114         0.29748
C         24.46598        35.34622         0.49609
C         25.62887        37.44750         0.12727
C         24.41183        38.14373         0.09291
C         25.66678        40.35890        -0.15461
C         24.37902        39.65700         0.20548
C         25.68546        41.72238        -0.34672
C         24.44006        42.43404        -0.59825
C         25.68806        44.57215        -0.48776
C         24.45189        43.84175        -0.70266
C         25.67282        46.01578        -0.61409
C         24.48391        46.68050        -0.89446
C         25.74100        48.89040        -0.82948
C         24.51968        48.13679        -1.16962
C         25.71747        50.28159        -0.69617
C         24.46947        51.04381        -0.80758
C         25.63222        53.11114         0.07383
C         24.45277        52.37191        -0.52619
C         25.67589        54.53930        -0.55965
C         24.42683        55.20297        -0.02241
C         25.68879        57.40669         0.07822
C         24.52140        56.58117         0.49140
C         25.59445        58.82263         0.26652
C         24.39939        59.47110         0.59180
C         24.33162        60.85960         0.84380
C         26.77047         8.23278        -1.04642
C         28.07580        10.31344        -0.77765
C         26.85370         9.61936        -0.92698
C         28.14624        11.72597        -0.61426
C         26.90152        12.45749        -0.40700
C         28.19730        14.56045        -0.04528
C         26.92241        13.81265        -0.00367
C         28.21667        15.95684         0.47211
C         27.02799        16.56428         1.20093
C         28.25957        18.74734         0.99031
C         27.02858        18.08708         1.04369
C         28.28386        20.20119         0.98630
C         27.07394        20.85427         1.60528
C         28.25700        23.13324         1.06860
C         27.10276        22.38158         1.59073
C         28.22482        24.51231         0.94680
C         26.98026        25.23627         1.12930
C         28.25098        27.40337         0.81550
C         26.94167        26.67318         0.65065
C         28.21348        28.84617         0.77220
C         27.00296        29.54281         0.80714
C         28.22135        31.72263         0.50447
C         26.92297        30.98245         0.37084
C         28.19544        33.16375         0.42198
C         26.94774        33.87362         0.48127
C         28.15183        36.00308         0.36048
C         26.93737        35.30400         0.37237
C         28.18200        37.44256         0.06562
C         26.89056        38.17860        -0.08271
C         28.20397        40.32197        -0.35754
C         26.94074        39.66072         0.23012
C         28.17587        41.80995        -0.06780
C         26.94111        42.46902        -0.21742
C         28.12557        44.66919         0.18407
C         26.88757        43.89747        -0.22600
C         28.15048        46.07211        -0.36882
C         26.94337        46.74152        -0.57395
C         28.18607        48.88224        -0.72358
C         26.95932        48.17080        -0.72054
C         28.17853        50.30783        -0.64738
C         26.94864        50.96947        -0.48439
C         28.23921        53.16601        -0.22679
C         26.95460        52.37786        -0.06932
C         28.15383        54.64811        -0.26424
C         26.95581        55.31024        -0.27480
C         26.87821        56.75167        -0.20279
C         29.37224        12.41069        -0.53711
C         30.67735        14.47129        -0.16156
C         29.46741        13.80861        -0.24618
C         30.79704        15.85274         0.35933
C         29.53761        16.58468         0.78714
C         30.72090        18.74233         0.64952
C         29.52933        18.05698         0.81672
C         30.71991        20.21983         0.71561
C         29.41608        20.91290         0.70865
C         30.59617        23.12331         0.05574
C         29.28371        22.36189         0.27227
C         30.60522        24.59378         0.25197
C         29.44916        25.25414         0.59390
C         30.71595        27.43048         0.63736
C         29.44495        26.71270         0.69902
C         30.69012        28.88382         0.77088
C         29.46727        29.56755         0.72078
C         30.68798        31.69192         0.39823
C         29.40793        31.00713         0.58988
C         30.67319        33.22018         0.26682
C         29.39283        33.90018         0.40288
C         30.60718        36.05426         0.63175
C         29.39992        35.32221         0.48954
C         30.52258        37.48276         1.05502
C         29.39541        38.22891         0.36453
C         30.58587        40.35042         0.57162
C         29.42538        39.58730         0.17639
C         30.71581        41.74197        -0.05698
C         29.41084        42.52779         0.04042
C         30.65990        44.63775        -0.20799
C         29.42306        43.91376         0.01678
C         30.63279        46.03312        -0.51604
C         29.39667        46.75741        -0.53170
C         30.65351        48.84590        -0.98123
C         29.41804        48.15744        -0.75431
C         30.66191        50.33615        -1.25902
C         29.40857        51.06628        -0.80965
C         29.40696        52.43264        -0.74095
C         31.96175        16.69244         0.06477
C         33.15061        18.84362         0.01154
C         31.94733        18.05637         0.27692
C         33.19357        20.19978         0.06084
C         31.97915        20.97063         0.42079
C         33.17995        23.18038         0.12740
C         31.91243        22.41183         0.00825
C         33.15969        24.57574         0.16831
C         31.87151        25.33701        -0.13807
C         33.17607        27.55652         0.10397
C         31.89402        26.77256         0.34147
C         33.18778        28.81617         0.97833
C         31.94658        29.60689         0.93011
C         33.12948        31.84254         0.96322
C         31.91051        30.99305         0.79634
C         33.08632        33.31798         0.66021
C         31.89458        34.00390         0.50868
C         33.10987        36.15592         0.73795
C         31.87713        35.42370         0.63122
C         33.09268        37.61876         0.83629
C         31.83105        38.22697         1.00221
C         33.50808        40.67337         0.74641
C         31.63942        39.64503         1.13894
C         33.26994        41.87846         0.12897
C         31.93967        42.58012         0.40591
C         33.06855        44.58590        -0.70790
C         31.88821        43.95284        -0.22596
C         33.03689        45.95895        -0.99285
C         31.84561        46.70747        -0.84259
C         31.82602        48.12292        -1.05993
C         34.46987        20.97027        -0.20853
C         35.60168        23.14329         0.25510
C         34.41022        22.45111         0.12594
C         35.62765        24.56269         0.34941
C         34.39447        25.29233         0.26792
C         35.68353        27.36425         0.36883
C         34.44206        26.71380         0.30398
C         35.63819        28.81428         0.58023
C         34.46050        29.25363         1.36768
C         35.51119        31.83089         0.42313
C         34.27271        31.32148         0.14366
C         35.54952        33.21146         0.95757
C         34.30575        34.00676         0.80811
C         35.61734        36.08306         0.62710
C         34.33485        35.42091         0.74651
C         35.57983        37.51560         0.14169
C         34.35462        38.32816         0.57968
C         35.68981        40.28623        -0.26617
C         34.50258        39.70397         0.38161
C         35.56392        41.63176        -0.97975
C         34.33276        42.46736        -0.64388
C         34.26344        43.79973        -0.96516
C         36.86463        25.24949         0.44142
C         38.21533        27.33583         0.57381
C         36.93236        26.64388         0.41669
C         38.42349        28.58609         0.03685
C         36.53535        29.64477        -0.03475
C         38.03184        31.75225         0.22659
C         36.68902        31.14774        -0.19304
C         38.06459        33.12625         0.45597
C         36.85992        33.92379         0.83331
C         38.08484        36.06319         0.36405
C         36.81056        35.38527         0.61111
C         38.10879        37.43069         0.22441
C         36.87570        38.26526         0.48091
C         36.85765        39.60307        -0.23154
C         39.42498        29.58743         0.31066
C         40.49773        31.75238         0.40225
C         39.27575        30.98320         0.25283
C         40.52591        33.11497         0.41045
C         39.30215        33.87726         0.42156
C         39.29136        35.26496         0.34741
O         30.35121        15.93254         1.79025
O         20.37356        54.16512        -1.02924
O         15.16630        25.14865        -0.21668
O         17.89610        36.25908         1.12475
O         24.28809        56.89995         1.93904
O         36.33117        33.49644         2.16460
O         14.75039        21.33403         2.36547
O         24.68310        26.10756         2.87978
O         20.14292        41.81146        -2.87843
O         20.30851        18.99015        -1.13798
O         31.19858        22.69606        -1.25512
O         18.84855        39.67743         0.22581
O         11.26311        27.10839         2.76530
O         19.85285        51.84331         1.69255
O         17.57496        24.61236         2.65208
O         21.18183        48.55689        -2.63656
O         27.81439        52.61953         1.09735
O         17.70626        29.51146         3.15842
O         11.28275        33.09380        -1.17649
O         30.78007        32.35754        -0.92471
O         16.52297        31.04864        -0.14302
O         16.86383        21.91886        -0.78595
O          8.96735        33.73241         1.73775
O         27.60567        37.74030        -1.28950
O         26.53383        22.85019         2.85970
O         17.70376        33.94250         2.08083
O         19.06568        37.25814        -2.31075
O         23.81084        33.73561         2.20798
O         22.02808         9.55064        -3.03433
O         15.92673        48.69150        -1.45607
O         24.72905        15.98257         1.91268
O         13.23696        36.29803        -2.03917
O         19.91342        30.64829         2.70328
O         19.27894        33.96237        -1.22322
O         19.17119        21.57812         2.29402
O         32.66198        40.32272         1.80162
O         22.63679        20.84665        -0.59545
O         15.30261        40.32445        -3.07304
O         19.58105        13.21524        -2.12208
O         22.21134        55.34325         2.04044
O         22.73079        58.63135        -0.84125
O         37.44204        28.99657        -0.90564
O         28.05086        15.74812        -0.95515
O         31.58079        20.77779         1.81990
O         24.10575        48.43603        -2.58362
O         23.17042        50.85237        -2.81149
H         23.59128        50.13734        -3.34555
O         15.84637        36.47174        -2.33495
H         15.80967        37.11294        -3.07762
O         21.25078        35.50489        -2.03478
H         20.55184        35.89415        -2.61041
O         21.92178         8.31862         0.24084
H         20.99917         7.99256         0.29211
O         18.15164        11.80548         0.93885
H         18.88560        11.28252         1.32457
O         23.75970        16.25795        -1.57539
H         23.02079        15.97732        -2.15612
O         18.57367        42.11888         0.40601
H         18.75602        41.29729         0.92580
O         25.35140        53.24841         1.48168
H         26.21605        53.21346         1.95382
O         24.73015        29.72636         3.03480
H         23.95289        30.20508         3.39353
O         28.65550        22.26216        -1.04978
H         29.38377        22.22515        -1.71249
O         35.52422        37.42288        -1.31256
H         34.71568        36.92436        -1.55422
O         34.77168        29.87163         2.51518
H         33.96768        30.27565         2.92677
O         19.72883        54.38891         2.56946
H         19.83470        53.38836         2.47532
O         25.66904        54.42512        -1.99697
H         24.74311        54.20944        -2.29610
O         31.77149        42.77585         1.82912
H         32.48561        43.36456         2.14826
O         20.97535        19.72002         2.41881
H         20.51514        20.37181         3.00012
O         30.11694        37.43752         2.47760
H         30.02678        38.36548         2.78626
O         13.05063        41.69957        -2.75763
H         13.84396        41.20843        -3.14342
O         23.16207        53.50752        -2.21148
H         23.06480        52.64839        -2.70191
O         26.73792        26.55099        -0.80516
H         26.75671        27.45562        -1.18474
O         36.75458        42.40430        -0.79024
H         36.80987        42.65805         0.15344
O         33.15876        27.92284        -1.30755
H         32.81324        27.14161        -1.80081
O         23.47044        23.52327        -0.48123
H         23.27988        22.70076        -0.99333
O         34.81755        20.84679        -1.60406
H         34.14682        21.32848        -2.13081
O         36.61923        31.33508        -1.65477
H         37.24224        30.67749        -2.04330
O         24.22872        39.89472         1.66697
H         24.05170        40.85282         1.78841
O         15.35688        36.85752         1.26504
H         16.19749        36.99930         1.75965
O         28.22572        40.24391        -1.80629
H         28.10092        39.28852        -2.04330
O         20.52376        31.21842        -0.83486
H         20.18938        31.99031        -1.34616
O         27.25084        16.29326         2.60251
H         26.38982        16.42282         3.06051
O         31.84985        25.41814        -1.61480
H         31.68060        24.49680        -1.93221
O         26.68261        30.89519        -1.09617
H         27.55549        30.80035        -1.53549
O         22.04155        26.73965        -0.49671
H         21.90139        27.66256        -0.80057
O         21.19264        39.54273        -2.72277
H         20.64920        40.04102        -3.37655
O         20.35606         6.56769        -4.24397
H         20.99978         7.21051        -4.60784
O         23.08075        24.08349         3.09859
H         23.43349        24.81230         3.66090
O         34.00608        30.56804        -0.93723
H         34.80508        30.53883        -1.51525
O         13.12326        23.16986         3.07233
H         13.53063        22.33848         3.41185
O         13.68660        18.76987        -1.19078
O         23.10278        11.66181         1.59447
H         23.99695        11.49937         1.96293
O         36.85381        38.51381         1.91765
H         37.69697        38.94654         2.16518
O         18.69998        23.64954        -0.72092
H         18.20244        23.05495        -1.33445
O         17.00902        12.34194        -2.49873
H         17.85523        12.70515        -2.85300
O         27.20227        20.43498         3.00302
H         26.80598        21.15699         3.54798
O         27.05217        39.76342         1.68052
H         26.13761        39.68656         2.04907
O         33.39495        31.86611         2.41196
H         34.17619        32.43881         2.58168
O         25.61972        10.75625        -2.60229
H         26.46279        11.21843        -2.79534
O         19.37609        44.18756        -3.19771
H         19.88900        43.50640        -3.69242
O         30.83976        50.54133        -2.67707
H         30.08794        50.11976        -3.14207
O         30.91237        41.45382        -1.46550
H         30.06938        41.07701        -1.82038
O         15.29267        28.92748         3.41488
H         16.13782        28.85398         3.91999
O         17.85683        50.75735        -2.18274
H         17.05650        50.28194        -2.49792
O         27.98719        44.84721         1.64880
H         27.16585        45.36108         1.80382
O         17.47397        39.24325        -3.05252
H         16.69608        39.62217        -3.57816
H          4.92631        31.13668         0.04220
H          4.87959        33.57910        -0.16312
H          7.42030        26.84120         0.56303
H          6.17375        28.98168         0.33378
H          6.14628        35.79031        -0.23183
H          7.40918        37.95396        -0.28217
H          9.90731        22.61707         0.77496
H          8.65932        24.70709         0.91085
H          8.67359        40.07158        -0.40078
H          9.95743        42.17181        -0.21080
H         12.28712        18.30190         0.37284
H         11.10556        20.52911         0.54577
H         11.22632        44.23241        -0.04735
H         12.48527        46.27266         0.24644
H         14.91418        14.08279        -0.60398
H         13.65075        16.13342        -0.28999
H         13.76124        48.11581         1.03252
H         15.22207        50.52014         1.27202
H         17.45914         9.83888        -1.39092
H         16.11538        12.02244        -0.66921
H         16.17184        52.58938         0.94630
H         17.32681        54.82409         0.84120
H         19.77896         5.79619        -2.42226
H         18.67826         7.67234        -1.44169
H         18.59904        56.93790         1.43159
H         19.83700        59.09134         1.76180
H         23.12304         2.45096        -2.94775
H         21.02449         3.77157        -3.19764
H         23.13622        62.54700         1.46099
H         21.05390        61.26532         1.80540
H         25.23249         3.55932        -2.22468
H         26.45999         5.62016        -1.62589
H         26.52396        59.41544         0.21787
H         25.22685        61.48233         0.69084
H         27.68444         7.62549        -0.95715
H         29.01441         9.73780        -0.77629
H         29.09439        55.21738        -0.18143
H         27.80519        57.33455        -0.33096
H         30.30569        11.84214        -0.66715
H         31.60670        13.92838        -0.39511
H         31.55519        50.79802        -0.76585
H         30.30719        52.99949        -1.02265
H         32.85934        16.21961        -0.36254
H         34.06508        18.28786        -0.24733
H         33.95121        46.46438        -1.33717
H         32.77133        48.63590        -1.29134
H         35.30947        20.49654         0.36196
H         36.55464        22.59389         0.23834
H         35.51448        41.40702        -2.08211
H         35.11856        44.29029        -1.45250
H         37.79156        24.65966         0.49681
H         38.98682        26.86621         1.20220
H         39.07371        37.94816         0.09630
H         37.77510        40.02677        -0.66750
H         40.41857        29.22081         0.61852
H         41.44519        31.19368         0.43857
H         41.48601        33.65038         0.44162
H         40.25263        35.79516         0.25994
