         280
 CSIRO Nanostructure Databank - Neutral Graphene Oxide Data Set
C        -11.02797         0.54019         0.43002
C         -9.66851         1.20565         0.47546
C         -8.79281         0.87645        -0.75772
C         -7.41160         1.48133        -0.49010
C         -6.20050         0.57736        -0.36699
C         -4.86325         1.32826        -0.36851
C         -3.56657         0.72208         0.16402
C         -2.33957         1.39732        -0.40598
C         -1.21053         0.67599        -0.91858
C         -0.00994         1.46069        -1.41206
C          1.29470         0.75384        -1.08385
C          2.59313         1.44522        -1.46333
C          3.80326         0.68961        -0.89019
C          5.01469         1.46293        -0.66647
C          6.32537         0.82749        -0.26520
C          7.50877         1.35731        -1.17583
C          8.79384         0.62587        -0.80391
C         10.06533         1.36540        -0.63833
C         11.23201         0.59046        -0.16646
C         -9.71320         2.70862         0.65110
C         -8.62048         3.46139         0.37822
C         -7.38421         2.77489        -0.05101
C         -6.11182         3.43211         0.35293
C         -4.82880         2.79493        -0.04784
C         -3.51779         3.41450         0.39757
C         -2.31873         2.77721        -0.23722
C         -1.13315         3.53574        -0.51946
C          0.02145         2.90424        -0.96597
C          1.29239         3.59326        -1.04574
C          2.51456         2.92143        -1.11599
C          3.75762         3.60716        -0.87892
C          4.99688         2.83581        -0.79154
C          6.27008         3.61306        -0.89234
C          7.57064         2.90825        -1.07797
C          8.83511         3.72309        -0.71857
C         10.08027         2.86004        -0.55342
C         -8.63727         4.94590         0.73192
C         -7.30866         5.66482         0.58863
C         -6.07309         4.86776         0.77659
C         -4.76436         5.60330         1.02408
C         -3.46933         4.82447         0.93149
C         -2.17411         5.60147         0.73410
C         -1.05898         4.95074        -0.04429
C         -0.07107         5.78119        -0.84111
C          1.27736         5.06996        -0.99584
C          2.58664         5.78013        -0.70569
C          3.77466         4.94628        -0.51698
C          4.96463         5.52241         0.20382
C          6.27923         5.05190        -0.41233
C          7.44306         5.42526         0.48359
C          8.59158         4.69668         0.42943
C         -7.23642         6.98920         0.35942
C         -5.91997         7.69755         0.16869
C         -4.77386         7.10373         1.01215
C         -3.49126         7.96612         1.21274
C         -2.10360         7.14166         1.03603
C         -1.26920         7.92650        -0.01269
C          0.04104         7.26509        -0.42084
C          1.35123         7.97046        -0.22418
C          2.55586         7.09298         0.05976
C          3.87154         7.86007         0.00614
C          5.14804         7.03486         0.02253
C          6.22288         7.51152         0.98112
C          7.29725         6.68593         1.20003
C         -6.02388         9.19021         0.29526
C         -4.89986         9.92803         0.34498
C         -3.57649         9.32107         0.46390
C         -2.45662        10.04989         0.21745
C         -1.12453         9.43220         0.54804
C          0.12209        10.18791         0.04992
C          1.37778         9.36712         0.30541
C          2.52396         9.89607         0.79472
C          3.84416         9.23140         0.59846
C          5.04704         9.66320         1.34569
C          6.11141         8.84426         1.54714
C        -11.18729        -0.70615        -0.04145
C        -10.06866        -1.42170        -0.71016
C         -8.84435        -0.63853        -1.06416
C         -7.58392        -1.49506        -1.28637
C         -6.25799        -0.68676        -1.28264
C         -5.00194        -1.53535        -1.39755
C         -3.64535        -0.91352        -1.55866
C         -2.46389        -1.45196        -1.08211
C         -1.22815        -0.70480        -1.08449
C          0.03925        -1.51306        -1.25247
C          1.29723        -0.72255        -0.99304
C          2.58217        -1.42332        -1.39564
C          3.78570        -0.68499        -0.82454
C          4.96480        -1.47984        -0.40554
C          6.30683        -0.74122        -0.09145
C          7.46324        -1.44638        -0.91373
C          8.77273        -0.73499        -0.66760
C          9.97717        -1.51035        -0.34436
C         11.20118        -0.75735        -0.10584
C         -9.98157        -2.91862        -0.73256
C         -8.78617        -3.53922        -0.64089
C         -7.58685        -2.66532        -0.29300
C         -6.27467        -3.43089        -0.28002
C         -5.10401        -2.90786        -0.75612
C         -3.83076        -3.40755        -0.13402
C         -2.52937        -2.69742        -0.28985
C         -1.23339        -3.42149        -0.03408
C          0.05881        -2.76895        -0.37538
C          1.37444        -3.57087        -0.36482
C          2.50602        -2.97928        -1.21233
C          3.77849        -3.77426        -1.17668
C          4.97216        -2.97854        -0.68188
C          6.27819        -3.70230        -0.91512
C          7.47519        -2.88823        -0.45358
C          8.72662        -3.64347        -0.17379
C          9.98675        -2.88138        -0.23170
C         -8.52302        -4.96557        -1.07188
C         -7.42097        -5.64888        -0.26988
C         -6.41349        -4.77363         0.45405
C         -5.09084        -5.48997         0.74693
C         -3.80520        -4.75615         0.52073
C         -2.48630        -5.47707         0.67696
C         -1.30879        -4.93589        -0.12490
C          0.02418        -5.64325         0.05680
C          1.20269        -5.09215        -0.38757
C          2.46407        -5.92367        -0.49738
C          3.82045        -5.34368        -1.05431
C          5.10187        -5.93911        -0.36360
C          6.39960        -5.13077        -0.34290
C          7.37544        -5.47877         0.76190
C          8.52933        -5.15719        -0.15551
C         -7.35350        -6.98747        -0.14917
C         -6.37950        -7.67265         0.79840
C         -5.03766        -6.96964         0.83136
C         -3.84845        -7.64334         0.97383
C         -2.55154        -6.92284         1.06425
C         -1.27522        -7.70471         1.07896
C         -0.01159        -6.94331         0.78392
C          1.24294        -7.70183         0.94913
C          2.46977        -7.24433         0.21843
C          3.72947        -7.97991         0.66193
C          4.99807        -7.10586         0.58777
C          5.89547        -7.12714         1.85542
C          7.25768        -6.55286         1.56591
C         -6.24378        -9.14514         0.52731
C         -5.06120        -9.78652         0.56025
C         -3.79484        -9.10493         0.82113
C         -2.62489        -9.81912         0.82100
C         -1.29864        -9.20322         1.07422
C          0.00108        -9.95611         0.79656
C          1.21392        -9.16369         1.27061
C          2.34228        -9.65910         1.82066
C          3.49093        -8.68469         2.04870
C          4.81315        -9.28615         2.46956
C          5.92750        -8.54260         2.40039
O         -2.32734        -5.84820         2.05700
O         -1.20207        -8.46936         2.33241
O         -8.12020        -4.89791        -2.45418
H         -7.81854        -3.97287        -2.64681
O          2.20686        -7.19466        -1.21099
O         -0.11044         1.46756        -2.86499
H         -0.93673         1.93237        -3.11316
O         10.44912         2.22919        -1.79289
O         -3.54762         0.01357         1.14653
O         -3.38174         3.68033         1.82537
O          7.59376        -5.59757        -1.24677
O          2.05388         5.72175        -2.05855
O         -5.71068        -0.95988        -2.59397
O         -6.98844        -4.52829         1.77934
H         -6.21614        -4.29332         2.35421
O          5.53460        -7.29007        -0.75503
O          6.68959         1.28941         1.12697
O          5.69031         7.14513        -1.34233
O          2.63561        -1.19830        -2.83231
H          3.18914        -1.92099        -3.22017
O         -3.55410         0.10202        -2.43963
H         -4.44255         0.22115        -2.86386
O         -5.04181         6.39595         2.23636
O          3.99316         8.99042        -0.87529
O          0.10576       -10.14022        -0.61971
H          1.01292       -10.44196        -0.83316
O         -4.73791         2.31717        -1.42841
O          3.04851        -3.54783        -2.42431
O          6.39408         5.87977        -1.62339
O         -0.46717        -2.72585         0.98518
O         -0.63785         5.79843        -2.17524
H          0.05991         6.17276        -2.76118
O          6.58946        -0.95748         1.28743
H          6.15606        -1.79623         1.57006
O         -1.71877        -5.18945        -1.50955
H         -0.97766        -4.95863        -2.11121
O         -1.01092         4.99526         1.39869
O          6.88225         3.50311        -2.23209
O         -9.85128        -0.89832        -2.10365
O         -4.46169        -4.74149         1.83628
O          1.32128         0.08653         0.21149
O          2.69930         1.41284        -2.90668
H          3.47406         1.95106        -3.17035
O          7.84592        -3.09244         0.92309
O         -6.19389         3.79196         1.77045
O          4.87341         5.16088         1.59075
H          4.03631         5.54893         1.94018
O         -7.79786        -2.13095         1.02575
H         -7.68626        -2.88575         1.65852
O         -8.96696         0.64166         1.62524
H         -9.32809         1.03852         2.44531
O          0.72857         7.93433        -1.54873
O          0.82328        -6.81064         2.02867
O         -6.96819        -7.52491         2.12669
H         -7.07407        -6.55852         2.29164
O         -7.71140        -2.12820        -2.57792
H         -8.54951        -1.79447        -2.98318
O          0.03496        10.51616        -1.33791
H          0.33796         9.73256        -1.85388
O         -3.49064         8.47800         2.51221
O          4.68992        -2.47933         0.65127
O          7.15383        -1.50380        -2.30702
H          7.32948        -0.62889        -2.72875
O         -3.34478        -2.46375         0.90061
O          2.44809         6.69844         1.47089
H          1.50562         6.55602         1.71313
O         -0.97128         9.48834         1.97145
H         -1.86054         9.32724         2.38901
O          6.27012        -3.84343        -2.34761
H          6.93822        -4.52709        -2.58684
O          3.91605        -5.78188        -2.41523
H          3.66477        -6.73235        -2.43425
O          9.15158         4.58954        -1.83141
H          8.30103         4.91598        -2.20812
O         -9.65281         5.61065        -0.02606
H         -9.44408         5.51162        -0.97755
O          7.19377         1.06613        -2.55013
H          6.96578         1.92477        -2.98850
O         -9.32121         1.57712        -1.89510
H         -9.93553         0.95916        -2.35709
O          1.94776        -3.40496         0.96413
H          1.19903        -3.29112         1.60001
O         -2.08095         7.93586        -1.20835
H         -1.48578         8.07165        -1.97749
O         -6.28675         0.01391         0.95823
H         -7.22072         0.04182         1.28773
O          5.27681        -6.22835         2.80194
H          4.47854        -6.67032         3.18939
O          3.90921        -9.10084        -0.22996
H          4.46374        -8.77741        -0.98004
O         -5.50542         7.41538        -1.21353
H         -4.74598         8.00094        -1.42772
O          0.07901        -2.02405        -2.61036
H          0.83263        -1.58797        -3.08669
O          6.24590         2.63229         1.40358
H          5.56552         2.49934         2.10884
O         -1.44501         7.16649         2.29537
H         -2.12685         7.47990         2.95160
O          3.12361        -7.76085         3.09431
H          2.16607        -7.53379         3.05160
H         12.10062        -1.31905         0.18770
H         12.16258         1.14092         0.03413
H         10.93156         3.34379        -0.01977
H          9.47018         5.02694         1.00741
H          8.12187         7.01556         1.85095
H          6.95353         9.20103         2.16007
H          5.03218        10.66081         1.80962
H          2.52922        10.93432         1.16333
H          0.18673        11.14960         0.61818
H         -2.51772        11.04774        -0.24333
H         -4.95289        11.02777         0.32967
H         -7.01312         9.66727         0.23465
H         -8.16368         7.56655         0.22026
H         -8.94656         5.02726         1.80930
H        -10.61153         3.17263         1.08761
H        -11.87818         1.06620         0.89307
H        -12.16706        -1.20603         0.00613
H        -10.89637        -3.47817        -0.98717
H         -9.46073        -5.57912        -1.01134
H         -8.11912        -7.61284        -0.63664
H         -7.16993        -9.70905         0.33952
H         -5.01961       -10.87186         0.38114
H         -2.66200       -10.90178         0.62567
H         -0.02220       -10.95870         1.31297
H          2.45073       -10.72593         2.07180
H          4.83876       -10.31325         2.86452
H          6.89244        -8.95547         2.73426
H          8.13989        -6.97600         2.06989
H          9.45749        -5.76981        -0.12312
H         10.93550        -3.40169        -0.02798
