         244
 CSIRO Nanostructure Databank - Neutral Graphene Oxide Data Set
C          1.21272         2.01687         0.80675
C          1.19243         3.41242         0.93412
C          2.38757         1.36142         0.46462
C          2.34844         4.16674         0.68677
C          1.15713         6.35493         0.23630
C          1.18098         7.69460         0.09055
C          2.32216         5.66154         0.89989
C          2.35540         8.48911         0.44061
C          1.10395        10.65460         0.02572
C          1.14343        12.03380        -0.13300
C          2.27826         9.94112         0.36006
C          2.36349        12.74116        -0.13853
C          1.34386        14.86434        -1.13922
C          1.42159        16.17938        -1.45581
C          2.35467        14.25488        -0.19892
C          2.58465        16.96988        -1.11449
C          2.64456        18.35256        -1.37817
C          3.57738         2.09504         0.23017
C          3.53789         3.51697         0.32656
C          4.81415         1.41109         0.00918
C          4.74577         4.30145        -0.00211
C          3.61407         6.38494         0.57593
C          3.57057         7.82284         0.63247
C          4.81299         5.73900         0.35745
C          4.82395         8.51194         1.03622
C          3.46723        10.68727         0.52765
C          3.55005        12.05012         0.14889
C          4.63644        10.04490         1.14008
C          4.90384        12.68363        -0.13710
C          3.71918        14.89590        -0.35686
C          3.75593        16.29382        -0.63438
C          4.90288        14.20252        -0.09660
C          4.98917        16.99596        -0.56298
C          3.81949        19.07118        -1.19455
C          5.02733        18.42206        -0.81761
C          6.02766         2.08748        -0.13494
C          6.02406         3.56182        -0.25956
C          7.26737         1.42232        -0.16497
C          7.29958         4.30429        -0.18203
C          6.09102         6.44460         0.36435
C          6.13569         7.79633         0.82845
C          7.29760         5.73101         0.04346
C          7.42890         8.42988         0.91116
C          5.78731        10.92595         1.33871
C          6.01477        12.10449         0.71841
C          7.64098         9.76704         1.38456
C          7.37015        12.72847         0.64323
C          6.14309        14.90409        -0.03768
C          6.17515        16.29062        -0.24900
C          7.42491        14.17476         0.21786
C          7.49676        16.98800        -0.46975
C          6.22640        19.14137        -0.66037
C          7.45658        18.49707        -0.32611
C          8.48330         2.13641        -0.29808
C          8.47360         3.58625        -0.35755
C          9.71324         1.45251        -0.25096
C          9.73774         4.29704        -0.74119
C          8.57267         6.40213         0.05289
C          8.61166         7.78879         0.42986
C          9.77372         5.72647        -0.26119
C          9.85320         8.50717         0.35899
C          8.71004        10.56479         1.02653
C          8.61241        12.05109         1.21470
C          9.91028         9.91511         0.61471
C          9.88784        12.83627         1.27263
C          8.62675        14.97818         0.51785
C          8.63816        16.33730         0.26579
C          9.86668        14.38896         1.17856
C          9.84719        17.08886         0.36018
C          8.59696        19.21577        -0.05549
C          9.84246        18.57897         0.50255
C         10.95763         2.14287        -0.27801
C         10.99191         3.51213        -0.44071
C         12.21240         1.30969        -0.07018
C         12.28658         4.21501        -0.73642
C         11.03903         6.40144        -0.24832
C         11.06260         7.83690         0.01607
C         12.23247         5.69690        -0.44507
C         12.26391         8.57446        -0.01801
C         11.13021        10.62956         0.62773
C         11.22465        12.06040         1.15730
C         12.32241         9.95635         0.30865
C         12.29086        12.77344         0.33983
C         11.08660        15.02376         0.55250
C         11.06979        16.37093         0.26330
C         12.27107        14.25187         0.19183
C         12.22173        17.03325        -0.46512
C         11.16099        19.22105         0.12765
C         12.29832        18.51733        -0.14897
C         13.51310         2.06363        -0.24077
C         13.47693         3.55774        -0.01559
C         14.67847         1.39848        -0.44670
C         14.78719         4.23675        -0.34395
C         13.50647         6.40678        -0.56812
C         13.51338         7.90167        -0.41272
C         14.79744         5.68205        -0.42436
C         14.82698         8.52232         0.03149
C         13.59751        10.68916         0.18197
C         13.58452        12.07752         0.19250
C         14.82163        10.01170        -0.08826
C         14.79020        12.87044        -0.25438
C         13.54813        14.99577         0.06205
C         13.53332        16.31118        -0.23516
C         14.81034        14.24220         0.41534
C         14.79148        16.99271        -0.70384
C         13.58855        19.16164        -0.25586
C         14.77006        18.48192        -0.46704
C         15.96779         2.07564        -0.50140
C         15.96030         3.51941        -0.44592
C         17.16434         1.39049        -0.62357
C         17.27465         4.24904        -0.30571
C         15.97628         6.38256        -0.58598
C         15.97423         7.85089        -0.68760
C         17.23160         5.65768        -0.84236
C         17.31133         8.61149        -0.70845
C         16.06234        10.71887        -0.15952
C         16.08759        12.13420        -0.04245
C         17.30041        10.01153        -0.25982
C         17.30512        12.83001         0.14584
C         16.08099        14.99536         0.09948
C         16.06484        16.31185        -0.24117
C         17.34352        14.27467         0.23588
C         17.37529        16.97807        -0.59456
C         16.02860        19.15056        -0.54243
C         17.24680        18.48849        -0.55029
C         18.44286         2.06189        -0.71628
C         18.49662         3.48096        -0.71239
C         19.65768         1.34632        -0.82603
C         19.71857         4.15423        -0.80701
C         18.53529         6.41486        -0.97468
C         18.55453         7.85197        -0.66723
C         19.85441         5.66112        -0.97908
C         19.73759         8.47870        -0.19239
C         18.52056        10.67014        -0.01638
C         18.52544        12.08537         0.20902
C         19.74188         9.90275         0.04978
C         19.73829        12.75900         0.54840
C         18.55244        14.98359         0.43787
C         18.57430        16.41716         0.18257
C         19.72768        14.17666         0.78633
C         19.67792        17.28757         0.32578
C         18.45352        19.22407        -0.61688
C         19.65753        18.63142        -0.24657
C         20.87976         2.01549        -0.82424
C         20.92877         3.42315        -0.79352
C         22.17609         4.16732        -0.62155
C         20.87703         6.20006         0.02370
C         20.94128         7.72155         0.00371
C         22.18237         5.45955        -0.22751
C         22.10469         8.40214         0.36312
C         20.94110        10.55689         0.43244
C         20.93042        11.98564         0.73422
C         22.11805         9.78694         0.54774
C         22.07083        12.60628         1.27176
C         20.86943        14.69530         1.43360
C         20.86505        17.00893         1.09487
C         22.01997        13.93672         1.67274
C         21.98449        17.81276         1.09607
C         20.85307        19.42609        -0.28637
C         22.00156        19.01527         0.33652
O          7.67450        13.08220        -0.76847
O         13.52599         7.34047        -1.74545
O         16.43919         8.42620        -1.90891
O         20.86394        15.96230         2.01917
O         11.89495        13.34395        -0.95574
O          4.48348         9.18012         2.31106
O          6.71510        10.38460         2.22868
O          9.14734        12.47210         2.50807
O         17.76467         5.96802        -2.16025
O          5.20236         4.05294        -1.38898
O         17.41540         4.44650         1.15132
H         17.69206         3.59090         1.54245
O          9.87007        14.89044         2.55568
H          9.33126        14.25569         3.08489
O         12.51858         4.07378        -2.16489
H         11.70054         4.40241        -2.61063
O          5.17605        12.32792        -1.52737
H          6.10885        12.60865        -1.70500
O          2.13842         5.83663         2.34587
H          2.17114         6.80004         2.53112
O         20.42652         5.88680        -2.28985
H         19.70171         5.76197        -2.94223
O         14.77896        13.99967         1.84537
H         14.84823        14.85981         2.30887
O         11.92532        16.92849        -1.88580
H         12.76286        17.12342        -2.36693
O          9.74279        18.80293         1.97075
H         10.34442        18.16180         2.40723
O         14.77962        16.81807        -2.17624
H         14.71206        15.85085        -2.34608
O         15.00100         8.18465         1.44660
H         14.43133         8.78403         1.97425
O         20.39879         5.83859         1.34939
H         21.03858         6.17989         2.00812
O          7.79974        16.75708        -1.88783
H          7.07779        17.16202        -2.41349
O         11.76584        11.97053         2.49780
H         11.00380        11.81067         3.09961
O          9.70885         4.38984        -2.24072
H          9.26908         3.57642        -2.57087
O         14.66359        13.13890        -1.68683
H         14.44743        12.29452        -2.13639
O         13.23407         3.78505         1.40548
H         14.02848         3.49217         1.89947
O         17.62262        16.64641        -2.00333
H         16.79062        16.86816        -2.48530
O          1.90781        14.64823         1.15305
H          1.86209        15.62828         1.16893
O         12.18293         0.15326        -0.91532
H         12.23905         0.45657        -1.84466
H          0.29665         1.43964         0.99488
H          0.26425         3.91923         1.23212
H          2.40924         0.26491         0.38662
H          0.26072         5.77765        -0.03308
H          0.30362         8.20864        -0.32591
H          0.14010        10.13653        -0.06598
H          0.20236        12.57484        -0.30448
H          0.46460        14.27825        -1.44313
H          0.62221        16.66066        -2.03989
H          1.74221        18.86679        -1.74031
H          4.81624         0.31087         0.03722
H          3.83606        20.15322        -1.38919
H          7.29709         0.32659        -0.07012
H          6.20497        20.23908        -0.74142
H          9.71771         0.35770        -0.15264
H          8.55124        20.31683        -0.06337
H         12.17875         0.92233         0.98803
H         11.23336        20.30948         0.28909
H         14.66067         0.30327        -0.56315
H         13.63005        20.25112        -0.09443
H         17.15300         0.29112        -0.67364
H         16.03254        20.25251        -0.55256
H         19.63455         0.24729        -0.85530
H         18.42743        20.29893        -0.85193
H         21.81724         1.44049        -0.83094
H         23.12541         3.62383        -0.74809
H         23.14382         5.95980        -0.03799
H         23.04187         7.84904         0.51733
H         23.07035        10.26017         0.81899
H         22.99347        12.03860         1.44561
H         22.87231        14.40147         2.18428
H         22.84482        17.53945         1.72014
H         20.81084        20.39809        -0.79765
H         22.90791        19.63536         0.31627
