         424
 CSIRO Nanostructure Databank - Neutral Graphene Oxide Data Set
C          1.17495         3.33298         0.73941
C          0.11301         4.04138         1.20040
C          1.15570         6.21795         0.79428
C          0.06216         5.48537         1.14210
C          1.11703         7.69424         0.39560
C         -0.06662         8.47416         0.88080
C          1.18053        10.56669         1.16143
C         -0.01715         9.83651         1.11154
C          1.24123        12.01320         1.57616
C         -0.02628        12.76290         1.30530
C          1.20273        14.84444         0.96108
C         -0.01180        14.10880         1.07586
C          1.14981        16.35038         1.02332
C          0.02626        16.98953         0.23994
C          1.22878        19.12908         0.22469
C          0.05653        18.30772        -0.04983
C          1.22757        20.52278         0.07452
C          0.06254        21.27480        -0.37128
C          1.13762        23.41365         0.32491
C          0.03181        22.62387        -0.33747
C          1.20673        24.85819        -0.11458
C          0.00318        25.60542        -0.07749
C          1.17474        27.69423        -0.56722
C         -0.00105        26.98020        -0.22761
C          1.17701        29.08161        -0.75972
C         -0.00661        29.86102        -0.67664
C          1.19739        31.95097        -1.11527
C         -0.01173        31.21830        -0.92118
C          1.16563        33.39536        -1.27291
C         -0.00163        34.14985        -1.28856
C          1.15271        36.30811        -1.10315
C         -0.00944        35.57115        -1.22972
C          1.18259        37.73770        -0.86151
C          3.58128         3.16656        -0.12195
C          2.36928         4.00276         0.18514
C          3.65022         6.30571         0.44336
C          2.39378         5.51444         0.36145
C          3.62219         7.74977         0.46291
C          2.42369         8.41630         0.63779
C          3.69363        10.58555         0.78424
C          2.47271         9.80617         1.21476
C          3.67103        12.01074         0.80002
C          2.46200        12.72580         1.03124
C          3.67622        14.86939         0.72877
C          2.43668        14.14595         0.90623
C          3.67824        16.30285         0.69590
C          2.45976        17.02976         0.71458
C          3.68659        19.15823         0.59399
C          2.45391        18.42902         0.53536
C          3.65522        20.56546         0.52489
C          2.44398        21.27084         0.28947
C          3.66438        23.42402         0.17235
C          2.45195        22.68918         0.22598
C          3.66408        24.83373        -0.12297
C          2.42468        25.50157        -0.34880
C          3.69851        27.68039        -0.64716
C          2.42342        26.90425        -0.91769
C          3.70526        29.06022        -0.84717
C          2.43011        29.75113        -1.28802
C          3.67118        31.94365        -1.04819
C          2.42821        31.25500        -1.10148
C          3.70089        33.38060        -1.12579
C          2.45369        34.07880        -1.43216
C          3.66172        36.26733        -0.80222
C          2.44548        35.64078        -1.28804
C          3.58537        37.63828        -0.17878
C          2.32351        38.38188        -0.52700
C          6.15037         3.20706        -0.11040
C          4.82886         3.52829         0.31765
C          6.12448         6.30323         0.45825
C          4.85141         5.71100         0.75175
C          6.10252         7.73942         0.34540
C          4.89298         8.44635         0.48768
C          6.11272        10.59599         0.31957
C          4.88697         9.88758         0.52625
C          6.10978        12.01992         0.35505
C          4.89235        12.72893         0.56154
C          6.13295        14.87137         0.43979
C          4.89651        14.16041         0.58505
C          6.14873        16.29487         0.47778
C          4.91906        17.00952         0.59717
C          6.16951        19.12353         0.63047
C          4.93208        18.43622         0.64991
C          6.19970        20.57454         0.82734
C          4.87032        21.34287         0.77103
C          6.13261        23.44275         0.31121
C          4.90512        22.75790         0.39169
C          6.13317        24.85680         0.05797
C          4.90017        25.54988        -0.15703
C          6.14450        27.68750        -0.33379
C          4.91227        26.97274        -0.37517
C          6.16800        29.10508        -0.56494
C          4.92540        29.80679        -0.80871
C          6.14936        31.97995        -1.06939
C          4.89499        31.21893        -0.96270
C          6.14005        33.43721        -0.83518
C          4.88983        34.12065        -0.95782
C          6.09505        36.26922        -0.52707
C          4.86489        35.56212        -0.78752
C          6.07050        37.71558        -0.46299
C          4.85631        38.39897        -0.41035
C          8.52955         3.42817        -0.17093
C          7.28019         4.06261         0.04029
C          8.51249         6.24696        -0.05196
C          7.28140         5.52637         0.22022
C          8.51896         7.70432        -0.06633
C          7.33521         8.43987         0.12593
C          8.54208        10.58276        -0.08706
C          7.32961         9.87810         0.10476
C          8.55132        12.02253        -0.03851
C          7.34117        12.73350         0.19133
C          8.58896        14.86544         0.12493
C          7.35649        14.15898         0.25082
C          8.61460        16.29340         0.22631
C          7.38882        17.00209         0.37754
C          8.62795        19.15301         0.38345
C          7.39464        18.43232         0.44882
C          8.64138        20.58959         0.41080
C          7.42189        21.31942         0.52688
C          8.61800        23.43945         0.28278
C          7.38567        22.72379         0.40136
C          8.61011        24.85797         0.16736
C          7.36787        25.56611         0.03610
C          8.61064        27.69425        -0.06907
C          7.37358        26.98453        -0.12442
C          8.61849        29.11968        -0.19460
C          7.40177        29.79341        -0.51445
C          8.63479        32.00752        -0.45287
C          7.46226        31.22319        -0.86148
C          8.54824        33.38757        -0.33289
C          7.32539        34.12264        -0.52454
C          8.51702        36.32050        -0.17931
C          7.31935        35.57536        -0.39725
C          8.51642        37.73707        -0.23722
C          7.31619        38.41706        -0.40357
C         10.98200         3.44544        -0.39772
C          9.74453         4.12970        -0.29103
C         10.91425         6.28327        -0.83687
C          9.70218         5.56311        -0.31411
C         10.97182         7.73006        -0.45032
C          9.75328         8.42102        -0.24486
C         10.99777        10.53535        -0.36292
C          9.75969         9.84785        -0.24400
C         10.97355        11.99976        -0.70485
C          9.76121        12.74015        -0.21604
C         11.06266        14.85414        -0.20508
C          9.79626        14.14254        -0.12451
C         11.08322        16.29095         0.01368
C          9.85862        16.99806         0.19109
C         11.07744        19.15760         0.27196
C          9.86270        18.44138         0.28500
C         11.10951        20.57825         0.30112
C          9.86598        21.30085         0.35526
C         11.08230        23.45237         0.35964
C          9.85908        22.73391         0.33860
C         11.08346        24.85534         0.27976
C          9.84458        25.56420         0.16134
C         11.07674        27.69854         0.11987
C          9.84233        26.98846         0.07509
C         11.06897        29.12176         0.09740
C          9.84830        29.83348        -0.06484
C         11.05197        31.98007        -0.03217
C          9.86786        31.28669        -0.15585
C         11.05740        33.46769        -0.29028
C          9.75680        34.12006         0.11379
C         11.07245        36.33450         0.08946
C          9.76715        35.61648         0.14420
C         11.08206        37.78613        -0.00897
C          9.77598        38.55426        -0.00418
C         13.44278         3.43459        -0.46117
C         12.21840         4.12355        -0.53306
C         13.41515         6.27431        -0.76374
C         12.22459         5.56802        -0.65037
C         13.45417         7.70013        -0.62795
C         12.20300         8.41311        -0.44224
C         13.49004        10.55654        -0.06569
C         12.20019         9.83448        -0.34550
C         13.45757        12.00457        -0.47963
C         12.27619        12.71238        -0.45576
C         13.56935        14.81186        -0.04299
C         12.25619        14.14744        -0.36532
C         13.54588        16.30825        -0.15201
C         12.32280        16.98612         0.02210
C         13.55185        19.19061        -0.08115
C         12.37220        18.42641         0.45527
C         13.57345        20.59278         0.00412
C         12.34264        21.27952         0.26877
C         13.61109        23.46272         0.29439
C         12.36009        22.72195         0.67945
C         13.58319        24.88039         0.29229
C         12.33219        25.57954         0.29565
C         13.56137        27.70935         0.24047
C         12.31978        26.98996         0.22152
C         13.52963        29.14105         0.16441
C         12.32566        29.81676         0.14699
C         13.59754        32.01319         0.16169
C         12.29730        31.28899         0.44646
C         13.56464        33.49634        -0.15587
C         12.27353        34.15305         0.35938
C         13.51502        36.36801         0.57952
C         12.25196        35.64648         0.18437
C         13.54686        37.80539         0.12261
C         12.27627        38.46538        -0.06387
C         15.87228         3.40542        -0.76891
C         14.68112         4.08503        -0.73701
C         15.94361         6.25966        -0.90657
C         14.65364         5.52931        -1.20354
C         15.94956         7.67558        -0.74016
C         14.69660         8.40420        -0.62613
C         15.96433        10.52804        -0.48682
C         14.73730         9.81241        -0.46697
C         15.97682        11.93238        -0.66350
C         14.72924        12.66718        -0.81166
C         16.03416        14.90280        -0.60816
C         14.75721        14.19872        -0.75200
C         16.02764        16.28588        -0.35542
C         14.77272        16.98193        -0.26185
C         16.07820        19.18873        -0.44531
C         14.74512        18.43934        -0.44289
C         16.05033        20.63666        -0.17493
C         14.81929        21.32884        -0.08332
C         16.04960        23.50350         0.02660
C         14.82112        22.77159         0.08645
C         16.06312        24.89546         0.20195
C         14.81509        25.61140         0.29188
C         16.05460        27.78061         0.72540
C         14.79063        27.02677         0.35388
C         16.06999        29.19377         0.22055
C         14.80477        29.86867        -0.18323
C         16.05098        32.08140         0.52929
C         14.77682        31.34831         0.16912
C         16.10593        33.50015        -0.03709
C         14.81591        34.25091         0.19669
C         16.04242        36.35139         0.40033
C         14.79827        35.61045         0.30596
C         16.01354        37.79005         0.33456
C         14.75154        38.46490         0.10059
C         18.38107         3.35578        -0.97063
C         17.10415         4.07632        -1.30899
C         18.38710         6.21521        -0.79590
C         17.13682         5.54644        -0.95091
C         18.41737         7.63623        -0.68602
C         17.18643         8.36257        -0.65667
C         18.44737        10.46968        -0.46572
C         17.22546         9.79802        -0.52956
C         18.44682        11.95127        -0.15887
C         17.25225        12.64169        -0.78253
C         18.53916        14.86352        -0.37390
C         17.28952        14.18381        -0.78293
C         18.51942        16.27119        -0.17104
C         17.28123        17.00828        -0.26182
C         18.50554        19.12949         0.08044
C         17.30527        18.41583        -0.19456
C         18.49642        20.57206         0.11901
C         17.28794        21.30054        -0.06594
C         18.56583        23.45933         0.13207
C         17.32331        22.77609        -0.36444
C         18.61638        24.95076        -0.07681
C         17.30449        25.65519         0.20583
C         18.57267        27.75956         0.41239
C         17.31900        27.02233         0.37334
C         18.58902        29.16282         0.32794
C         17.35083        29.88609        -0.13669
C         18.53362        32.05461         0.37068
C         17.34683        31.35480         0.23965
C         18.54114        33.51599         0.53491
C         17.32912        34.23703         0.45116
C         18.46608        36.42116         0.88772
C         17.25826        35.65004         0.56018
C         18.45923        37.87119         0.62933
C         17.20980        38.51089         0.39102
C         19.54120         4.01612        -0.77460
C         20.81972         6.15152        -0.65565
C         19.60240         5.46852        -0.75683
C         20.85559         7.54801        -0.61184
C         19.67603         8.31371        -0.62357
C         20.88172        10.50924        -0.61906
C         19.69612         9.76928        -0.55670
C         20.89483        11.92841        -0.59118
C         19.74695        12.67415        -0.42253
C         20.94039        14.84309        -0.02152
C         19.74584        14.12902        -0.29304
C         20.93449        16.21468         0.16065
C         19.73662        16.96725         0.09424
C         20.89991        19.14456         0.52341
C         19.72631        18.40937         0.25342
C         20.88383        20.53397         0.60648
C         19.70694        21.27569         0.40246
C         20.87687        23.45451         0.89926
C         19.70122        22.74173         0.46855
C         20.89636        24.83336         0.97511
C         19.79197        25.62146         0.58482
C         20.98454        27.79533         0.86422
C         19.79838        27.04238         0.62935
C         20.98377        29.16948         0.78777
C         19.79718        29.89247         0.47389
C         20.98742        32.07724         0.41752
C         19.80150        31.33855         0.38346
C         20.98257        33.47664         0.52599
C         19.79477        34.20104         0.64016
C         20.98975        36.48910         0.57146
C         19.82219        35.66805         0.88652
C         20.90937        37.86042         0.55495
C         19.67313        38.55729         0.61242
O          4.82555         4.46719         1.37179
O         14.56057        13.53071        -2.01465
O          2.12308         4.90465        -0.97828
O          2.56108        34.96910        -2.58047
O          6.97782        31.54526        -2.20789
O         17.45680        13.37591        -2.01219
O          9.65293        34.78546         1.39049
O         15.39584        18.85580        -1.69644
O         19.13298        36.03516         2.12568
O          5.52279        21.03341         2.04935
O         11.03568        33.67218        -1.72630
H         11.89883        33.36843        -2.09957
O         16.26674        33.35432        -1.49645
H         16.45246        34.24630        -1.86064
O         12.59863        18.36098         1.93509
H         12.57109        19.28497         2.26683
O          0.79312        23.46093         1.75838
H          0.81751        22.53914         2.09308
O          2.38421        29.53659        -2.75777
H          1.62620        30.05614        -3.10309
O         16.03455        27.85618         2.21072
H         15.96372        26.93715         2.54737
O         13.56390        10.61797         1.41544
H         13.65821         9.69746         1.74140
O         17.46321        29.88874        -1.64070
H         18.20059        30.49517        -1.87066
O         18.83835        25.13337        -1.55004
H         19.74865        24.81723        -1.73847
O         13.83013        14.52617         1.37643
H         13.15600        15.00409         1.90553
O         10.72863         6.28027        -2.31212
H         11.57490         6.57674        -2.71296
O          0.86284        16.65277         2.44545
H          0.86888        17.62981         2.53745
O          1.42325        12.00948         3.07930
H          1.48234        12.94921         3.36020
O         12.19136        31.28836         1.91996
H         12.13960        32.23903         2.20273
O         16.97739         4.02403        -2.78991
H         17.77838         4.45222        -3.16181
O          2.37547        26.73235        -2.37587
H          2.40745        27.64234        -2.76878
O         13.43873        36.42266         2.06350
H         14.26417        36.85106         2.37995
O         10.84934        12.01466        -2.18003
H         10.92581        12.94779        -2.47344
O         13.57391        33.53663        -1.62588
H         14.45958        33.18733        -1.90457
O         18.20710        12.06766         1.29045
H         18.93060        11.59029         1.74882
O         14.55390         5.47690        -2.66609
H         15.32112         4.93040        -2.97600
O         17.36986        22.84968        -1.83813
H         17.70609        23.75541        -2.06133
O          3.50957        37.42688         1.29446
H          4.35597        37.01061         1.56654
O         12.21414        33.93466         1.79439
H         12.61533        34.72318         2.23739
O          0.95189         7.63161        -1.07253
H          1.30754         6.76677        -1.38385
O         14.78031        29.88066        -1.66902
H         15.72139        29.93761        -1.97809
O          9.83240        39.64711        -0.93172
H          9.87044        39.27804        -1.83769
O         15.99588        32.22693         1.98024
H         15.89173        31.33440         2.37334
O          2.66260         9.58807         2.67581
H          2.38150        10.42594         3.12606
O         12.40460        22.68737         2.17557
H         11.52001        22.39015         2.48067
H          1.19165         2.23740         0.83707
H         -0.75655         3.51246         1.61687
H         -0.88654         5.97649         1.40304
H         -1.04694         7.97624         0.89359
H         -0.97074        10.35083         1.30473
H         -0.99131        12.25695         1.44108
H         -0.96863        14.64655         1.00894
H         -0.87168        16.40194        -0.00010
H         -0.81067        18.77102        -0.54227
H         -0.79809        20.72631        -0.78094
H         -0.85929        23.15761        -0.69981
H         -0.93332        25.09540         0.18759
H         -0.94243        27.52005        -0.05747
H         -0.95882        29.37851        -0.41839
H         -0.96898        31.75376        -0.88116
H         -0.97740        33.64594        -1.25262
H         -0.98094        36.08245        -1.16250
H          0.24491        38.30027        -0.99014
H          3.46482         2.41095        -0.91305
H          2.31632        39.47104        -0.37130
H          6.32793         2.23239        -0.59140
H          4.85110        39.49619        -0.32534
H          8.54870         2.33117        -0.25957
H          7.31311        39.51671        -0.40830
H         10.98548         2.34721        -0.32796
H          9.67835        39.02387         1.01573
H         13.44489         2.35510        -0.24599
H         12.26729        39.55489        -0.22218
H         15.91041         2.33276        -0.52393
H         14.77830        39.54699        -0.10241
H         18.36371         2.25549        -0.97936
H         17.19016        39.60275         0.25617
H         20.47563         3.46040        -0.60163
H         21.75946         5.58185        -0.61802
H         21.83325         8.04457        -0.54691
H         21.84487         9.99464        -0.73482
H         21.86352        12.43091        -0.72675
H         21.89268        14.30106         0.05983
H         21.88903        16.71855         0.36352
H         21.85658        18.62581         0.67000
H         21.83098        21.04662         0.81938
H         21.76477        22.89965         1.22654
H         21.79356        25.32287         1.38007
H         21.92922        27.27460         1.07228
H         21.92475        29.70863         0.96033
H         21.95896        31.56598         0.39485
H         21.94829        33.99805         0.57883
H         21.93979        36.00144         0.31068
H         21.82425        38.44516         0.37995
H         19.67291        39.65052         0.49505
