         276
 CSIRO Nanostructure Databank - Neutral Graphene Oxide Data Set
C         30.44664        31.66371        -0.60049
C         30.59297        32.90858        -0.67657
C         30.32992        35.96131         0.46588
C         30.46427        37.22358         0.58928
C         30.72790        40.25809        -0.32528
C         31.02008        41.30761        -0.96302
C         32.86272        28.91197         0.23927
C         31.79450        29.45326        -0.07507
C         32.91467        31.64452        -0.28011
C         31.62954        30.80579        -0.61142
C         32.85225        33.13857        -0.17929
C         31.61015        33.82171        -0.31784
C         32.76407        35.95498         0.28249
C         31.48267        35.31765        -0.31626
C         32.78686        37.40754         0.71525
C         31.49454        38.13655         0.74460
C         32.78349        40.27928         1.02565
C         31.40399        39.62325         0.89158
C         32.82645        41.67051         1.18620
C         31.08150        42.61293        -1.38666
C         32.75287        44.26869        -0.25384
C         32.07747        43.36384        -0.90551
C         35.53803        27.35651         0.44612
C         35.39637        28.76534         0.84222
C         34.10606        29.51346         0.74586
C         35.38720        31.75809         0.32156
C         34.11410        30.99581         0.39071
C         35.32463        33.14191         0.18677
C         34.08135        33.83504        -0.02723
C         35.29612        35.99150         0.43214
C         34.05517        35.34804        -0.24474
C         35.28040        37.50633         0.47174
C         34.06400        38.17021         0.65425
C         35.24922        40.32519         0.82222
C         34.01416        39.59532         0.80585
C         35.24807        41.76576         0.84496
C         34.01125        42.42120         0.93288
C         35.15427        44.68919         0.52027
C         33.85815        43.87491         0.62105
C         35.29815        45.95073        -0.21550
C         37.86602        27.16851        -0.36446
C         36.61625        26.75279         0.30703
C         38.01185        28.78925         0.32279
C         36.70822        29.53285         0.67676
C         37.90808        31.74299        -0.01338
C         36.72034        31.10018         0.70860
C         37.68714        33.14737        -0.57241
C         36.65543        33.89578         0.27537
C         37.84108        36.07651         0.18167
C         36.55817        35.37298        -0.18038
C         37.80885        37.50722         0.49590
C         36.52188        38.21266         0.58463
C         37.71584        40.37959         0.97968
C         36.47678        39.60896         0.77749
C         37.72013        41.84208         0.75410
C         36.49283        42.53261         0.72852
C         37.68185        44.66825         0.30905
C         36.46794        43.96354         0.56041
C         37.73221        45.98811        -0.23028
C         36.40551        46.45178        -0.46995
C         40.40666        24.26692        -0.02542
C         39.57391        25.22602        -0.09643
C         40.44772        27.41664        -0.16544
C         39.19965        26.53481        -0.11461
C         40.34452        28.89960        -0.51796
C         38.99099        29.56987        -0.57501
C         40.23960        31.78412        -0.89440
C         39.03951        31.06127        -0.29793
C         40.22725        33.23213        -0.42446
C         38.98476        34.04223        -0.82224
C         40.25799        36.20358        -0.32513
C         38.99278        35.39662        -0.09263
C         40.32103        37.41536         0.61040
C         39.00290        38.18580         0.61222
C         40.25110        40.37634         0.46769
C         39.01826        39.62706         0.92871
C         40.20176        41.85918         0.69911
C         38.99351        42.52903         0.70947
C         40.25636        44.74844         0.29887
C         38.97425        44.01671         0.62526
C         40.22331        46.06249        -0.38715
C         38.94639        46.65470        -0.57922
C         40.10061        48.46632        -1.67456
C         39.06503        47.89539        -1.26023
C         42.76262        24.34749        -0.33399
C         41.56743        23.55275        -0.18406
C         42.79036        27.46868        -0.85605
C         41.45933        26.87481        -1.16490
C         42.80208        28.85675        -0.66291
C         41.52210        29.59062        -0.69393
C         42.74860        31.70478        -0.45433
C         41.56005        31.05370        -0.64436
C         42.79938        33.09958         0.15165
C         41.50880        33.91208        -0.04154
C         42.88337        36.12244         0.17290
C         41.57231        35.40760        -0.24114
C         42.84478        37.48749         0.65055
C         41.60826        38.27804         0.31464
C         42.79933        40.41517         1.01670
C         41.48375        39.63182         1.06118
C         42.75236        41.75170         0.28536
C         41.52953        42.59059         0.76771
C         42.74359        44.76447         0.29142
C         41.48867        43.92685        -0.01310
C         42.72758        46.05229        -0.53368
C         41.45411        46.66690        -0.83571
C         42.69327        48.47014        -1.82856
C         41.41512        47.96124        -1.52192
C         43.55348        25.27182        -0.48658
C         45.13953        27.30711        -0.33312
C         43.91875        26.66276        -0.61515
C         45.22868        28.75122        -0.27852
C         44.03564        29.50211        -0.43969
C         45.36735        31.66955        -0.21554
C         44.05215        30.97479        -0.51106
C         45.35871        33.12815         0.08124
C         44.07887        33.89861        -0.23904
C         45.36841        36.07699         0.23107
C         44.08794        35.28809         0.57425
C         45.38740        37.48416         0.82707
C         44.06995        38.11326         1.29956
C         45.35272        40.33657         0.61102
C         44.08461        39.65848         1.14376
C         45.30069        41.87504         0.87510
C         44.02209        42.57308         0.41439
C         45.28110        44.68494         0.13316
C         44.01208        43.91565         0.19161
C         45.23473        46.12616        -0.33404
C         43.95442        46.69528        -0.78706
C         43.76548        47.90503        -1.48747
C         47.48173        27.28945         0.11265
C         46.40971        26.69169        -0.07077
C         47.73557        28.68949         0.25941
C         46.47843        29.45082         0.06351
C         47.75081        31.53545         0.68068
C         46.52054        30.83190         0.20484
C         47.77071        33.03475         0.62732
C         46.51734        33.78485         0.33054
C         47.88037        35.90901         0.81908
C         46.55657        35.23297         0.66305
C         47.92321        37.44153         0.88983
C         46.56702        38.15178         0.87530
C         47.92415        40.34875         0.58333
C         46.64786        39.65751         1.19053
C         47.67264        41.76718         0.12726
C         46.53143        42.48152         0.25552
C         47.88452        44.68067         0.22093
C         46.55843        43.91288        -0.20542
C         47.67339        45.97554        -0.55637
C         46.58719        46.52301        -0.76350
C         50.26306        28.79075         0.25017
C         48.95157        29.30403         0.40429
C         50.26111        31.49223         0.01038
C         49.10648        30.79603         0.76602
C         50.09905        32.95559        -0.42206
C         49.04677        33.75390         0.34055
C         50.31020        35.87662         0.04273
C         49.08029        35.11646         0.39661
C         50.21454        37.36962        -0.21450
C         48.87879        38.04840        -0.12341
C         50.02569        40.33537        -0.69307
C         48.77465        39.50924        -0.38038
C         49.95351        41.37697         0.47193
C         48.96369        42.43598         0.03496
C         50.43515        44.13475         0.45866
C         49.09904        43.80501         0.03656
C         51.33763        29.34176        -0.07362
C         52.48288        31.55729        -0.88054
C         51.41081        30.76851        -0.30734
C         52.44065        32.80120        -0.93725
C         51.42869        33.73635        -0.58183
C         52.51942        36.01807        -0.82878
C         51.48821        35.09097        -0.46221
C         52.47544        37.25490        -0.93208
C         51.36374        38.15514        -0.80427
C         52.41732        40.40337        -0.54538
C         51.31855        39.51745        -0.81159
C         52.50314        41.28382         0.31654
C         51.56881        42.04476         1.16037
C         51.42076        43.48274         0.81452
O         38.46698        40.00564         2.21312
O         44.08427        34.15227        -1.59251
O         47.59421        32.33472         1.91682
O         40.53952        33.48489         0.97710
O         39.76855        44.70887         1.66795
O         48.27162        38.57049        -1.35045
O         49.10847        40.66448         1.49628
O         47.14122        35.43055         1.99309
O         32.75041        36.25148         1.69178
O         45.31751        45.78589         1.10853
O         32.60332        31.12225        -1.61618
O         38.96894        34.43310        -2.17599
O         44.93919        31.42031        -1.60170
O         41.20241        26.17994        -2.12765
O         43.50916        40.36659         2.28153
O         33.86162        30.49737         1.77183
O         50.63834        36.84942         1.09147
O         42.47881        35.87923        -1.23389
O         36.20405        29.06723         1.99324
O         34.31320        44.74877         1.68474
O         40.24942        40.27356        -0.99361
H         39.52758        40.83975        -1.34116
O         30.58584        39.89014         2.02730
H         30.47965        40.86439         2.10143
O         42.69039        41.41516        -1.13200
H         41.94290        40.77150        -1.28528
O         46.53267        43.84334        -1.65436
H         47.28233        43.28734        -1.95659
O         45.39989        40.14002        -0.80892
H         44.57922        40.51045        -1.21132
O         41.77590        42.82814         2.16141
H         41.17770        43.55522         2.45783
O         36.50668        35.47353        -1.62399
H         37.38363        35.13828        -1.99654
O         44.11694        35.08125         1.97270
H         43.56257        34.29263         2.20548
O         41.09669        27.35194         1.13180
H         40.45959        27.74384         1.77364
O         49.51868        30.77250         2.14806
H         49.00636        31.47528         2.61853
O         42.66702        45.19242         1.66746
H         43.55440        45.54390         1.91847
O         38.68372        28.55630         1.55573
H         37.99055        28.43961         2.24800
O         45.38146        42.17534         2.28397
H         45.92042        41.47544         2.72692
O         41.62556        22.20559        -0.16820
H         42.54695        21.90042        -0.27744
O         43.97116        37.84323         2.71914
H         44.72383        38.29379         3.16085
O         35.26818        35.58786         1.82492
H         34.40139        35.88271         2.20677
O         51.66420        41.76417         2.49225
H         51.06935        42.34442         3.00692
O         31.31788        35.72596        -1.67444
H         32.18383        35.58257        -2.13247
O         41.40076        43.68196        -1.42714
H         42.05726        42.97922        -1.67024
O         40.49417        36.86845         1.92782
H         40.54990        37.62812         2.55995
O         41.18078        39.37027         2.43606
H         41.97941        39.61937         2.96601
O         46.65758        39.81590         2.61862
H         47.50124        39.40281         2.92888
O         45.47219        36.28859        -1.18091
H         44.99306        35.54068        -1.65440
O         49.84891        41.04956        -1.92861
H         49.73751        40.39465        -2.64965
O         49.53843        32.88296        -1.77229
H         50.18148        32.40501        -2.33995
O         41.86301        38.55351        -1.08039
H         41.48429        37.80714        -1.62521
O         38.55628        29.58357        -1.96478
H         38.33988        28.66110        -2.25476
O         40.13577        36.68445        -1.67748
H         39.80205        35.89384        -2.21447
O         42.89991        32.80867         1.57769
H         41.97175        32.68118         1.89843
O         47.86647        45.00349         1.58938
H         47.06264        45.55013         1.76914
O         37.18090        33.87237         1.60423
H         36.57191        34.37465         2.19241
O         36.91448        31.43456         2.09976
H         36.26174        30.91400         2.62197
O         37.10445        32.86951        -1.85736
H         37.78475        33.17543        -2.52067
O         48.45171        37.77549         2.20436
H         48.21919        37.03177         2.80517
O         33.97928        35.60165        -1.66523
H         34.87363        35.40750        -2.06033
O         31.69336        42.32173         1.55912
H         31.85642        43.28614         1.62594
O         40.08898        31.82200        -2.32898
H         39.58866        31.01509        -2.60086
O         37.61728        27.18684        -1.77085
H         37.99704        26.37274        -2.16458
