         324
 CSIRO Nanostructure Databank - Neutral Graphene Oxide Data Set
C         30.72418        56.86398        -1.72992
C         30.56444        58.35423        -1.68958
C         29.60384        58.96185        -2.67864
C         30.76626        61.11667        -2.47193
C         29.69042        60.29158        -2.95523
C         32.93868        52.77264        -0.20140
C         32.95196        54.17485        -0.36588
C         31.84131        54.82641        -0.94202
C         33.00080        56.98110        -0.73794
C         31.83132        56.23107        -1.14639
C         33.07594        58.40583        -1.12572
C         31.89469        59.07164        -1.73156
C         33.07240        61.26912        -1.57021
C         31.87318        60.55466        -1.85663
C         35.27853        48.56535         0.59306
C         35.16974        49.95593         1.15153
C         34.02858        50.69633         0.52481
C         35.24269        52.84730         0.66352
C         34.05820        52.08115         0.32444
C         35.27370        54.25313         0.49628
C         34.12236        54.93506         0.01261
C         35.33570        57.12531         0.11791
C         34.12314        56.35806        -0.18320
C         35.37160        58.55772        -0.14132
C         34.07136        59.27671        -0.40102
C         35.42732        61.34509        -0.89603
C         34.20252        60.65803        -1.01452
C         37.65792        44.30516         0.59432
C         37.67880        45.67388         0.53234
C         36.48591        46.44033         0.37304
C         37.73301        48.51813         0.88660
C         36.47025        47.84767         0.55433
C         37.74868        50.02253         0.78660
C         36.45235        50.73769         1.06792
C         37.66009        52.88793         1.33427
C         36.43583        52.11516         0.99512
C         37.66329        54.35399         1.13572
C         36.50376        55.00927         0.74319
C         37.68685        57.23718         0.88106
C         36.47627        56.45281         0.55600
C         37.73745        58.69388         0.51633
C         36.53100        59.30280        -0.05540
C         37.82252        61.40922        -0.31563
C         36.59431        60.71114        -0.41794
C         40.11996        40.01492        -0.43257
C         39.74228        41.22475         0.25822
C         38.92038        42.26322        -0.04156
C         40.18732        44.19839         0.98733
C         38.84295        43.43997         0.93623
C         40.20230        45.59855         0.96942
C         38.99807        46.39948         0.49798
C         40.14418        48.50085         1.41263
C         38.89411        47.81679         1.01184
C         40.15879        49.98092         1.36649
C         38.99326        50.68122         1.32594
C         40.26634        52.91974         1.66035
C         38.95001        52.15032         1.56415
C         40.20561        54.29560         1.03185
C         38.96836        55.05550         1.26010
C         40.22613        57.13460         0.37477
C         39.00219        56.53131         1.05853
C         40.21347        58.64711         0.36886
C         39.04795        59.35743         0.30538
C         40.27906        61.48160        -0.00559
C         39.04783        60.78400         0.00857
C         42.70471        35.91811        -1.20868
C         42.64902        37.18543        -0.66270
C         41.30880        37.84099        -0.44417
C         42.48791        39.88059         0.48885
C         41.29872        39.34293        -0.15941
C         42.69169        41.30877         0.81426
C         41.55850        42.07676         1.13977
C         42.68145        44.19562         0.84918
C         41.44869        43.49084         1.04205
C         42.66634        45.63286         0.96725
C         41.43604        46.30420         1.10100
C         42.72851        48.50584         1.33162
C         41.45233        47.75561         1.40512
C         42.74655        49.93580         1.38004
C         41.46562        50.65928         1.22822
C         42.76240        52.83432         1.45073
C         41.48352        52.14703         1.20557
C         42.77506        54.26780         1.21367
C         41.46443        55.01211         0.90838
C         42.67543        57.17841         1.03071
C         41.50336        56.49952         0.89427
C         42.75121        58.59560         0.59841
C         41.49712        59.33842         0.19633
C         42.75675        61.47367         0.19059
C         41.51219        60.81761         0.16041
C         45.18214        33.16614        -1.76848
C         43.97481        33.86727        -1.70265
C         45.14645        35.86505        -0.85357
C         43.93819        35.20579        -1.24921
C         45.12383        37.19892        -0.33781
C         43.82167        37.80127        -0.13350
C         45.42221        40.08834         0.50840
C         43.59381        39.01624         0.58423
C         45.17052        41.41066         0.24807
C         43.91610        42.04181         0.60128
C         45.13877        44.19170         0.46831
C         43.88512        43.46719         0.62519
C         45.09210        45.66985         0.49957
C         43.88188        46.38455         0.91013
C         45.19285        48.51501         1.07362
C         43.92957        47.78416         1.12755
C         45.24917        49.95109         1.54694
C         43.93635        50.67020         1.42600
C         45.21084        52.83396         1.48246
C         43.97287        52.11785         1.49935
C         45.27214        54.27998         1.92289
C         43.94628        55.04337         1.71972
C         45.23629        57.21618         1.41002
C         43.92881        56.52887         1.54326
C         45.23319        58.68277         1.35431
C         43.91464        59.41953         1.00886
C         45.20848        61.46314         0.55059
C         43.96508        60.81345         0.53013
C         46.37507        33.79674        -1.43884
C         47.60612        35.83214        -0.82648
C         46.38706        35.15527        -1.01557
C         47.62032        37.21872        -0.56147
C         46.39085        37.89960        -0.23479
C         47.64433        40.02284        -0.46367
C         46.49385        39.31228        -0.06297
C         47.56796        41.48241        -0.64212
C         46.21136        42.19479        -0.51276
C         47.62247        44.24585         0.31555
C         46.31513        43.57712         0.10186
C         47.65077        45.72077         0.59896
C         46.36287        46.44667         0.41574
C         47.60835        48.58895         0.41831
C         46.35345        47.87579         0.75452
C         47.60040        50.08370         0.50169
C         46.39510        50.76132         0.98257
C         47.64935        52.90023         0.93442
C         46.41853        52.15150         1.13988
C         47.64494        54.32028         1.11874
C         46.47877        55.04597         1.39598
C         47.67921        57.24876         1.21138
C         46.45351        56.50165         1.36340
C         47.70513        58.65971         1.05194
C         46.47142        59.41019         1.06849
C         47.69374        61.56317         0.52484
C         46.42671        60.77850         0.76305
C         48.84805        37.93341        -0.63207
C         50.11851        40.08304        -0.65059
C         48.88306        39.33626        -0.63324
C         50.14840        41.45273        -0.47801
C         48.89282        42.23288        -0.56004
C         50.10924        44.26814         0.15590
C         48.91008        43.62511        -0.06740
C         50.17668        45.66963         0.75728
C         48.91378        46.47231         0.52089
C         50.10086        48.63181         0.41325
C         48.89920        47.85705         0.47406
C         50.07241        50.03579         0.37058
C         48.88052        50.80140         0.49239
C         50.08006        52.96897         0.36316
C         48.86507        52.22077         0.60154
C         50.15232        54.33058         0.62423
C         48.95330        55.00876         1.15306
C         50.20396        57.23347         0.88494
C         48.96274        56.53094         1.24743
C         50.19443        58.65129         0.88207
C         48.94457        59.36263         0.94377
C         50.14326        61.49117         0.80008
C         48.96829        60.79727         0.78150
C         51.36255        42.20674        -0.31640
C         52.67811        44.26887         0.14412
C         51.35580        43.55917        -0.06035
C         52.60030        45.78087         0.07840
C         51.40636        46.43733         0.33806
C         52.61293        48.64419         0.08420
C         51.41522        47.91597         0.63530
C         52.60522        50.04047        -0.00535
C         51.30524        50.75653        -0.01674
C         52.58471        52.99106        -0.38351
C         51.26531        52.24684        -0.16526
C         52.57063        54.42270         0.10689
C         51.38285        55.07779         0.46638
C         52.61293        57.23250         0.42303
C         51.39834        56.51166         0.64204
C         52.61942        58.66143         0.50675
C         51.42247        59.35525         0.77731
C         52.61483        61.52020         0.45799
C         51.45270        60.82648         1.09475
C         53.80155        46.50417        -0.12629
C         55.02359        48.66754        -0.30837
C         53.82695        47.92843        -0.11847
C         55.03234        50.06254        -0.21693
C         53.81680        50.76691        -0.09469
C         55.05749        52.97912        -0.17311
C         53.79354        52.24852         0.22572
C         55.02179        54.39101        -0.26219
C         53.79929        55.11875        -0.00060
C         55.03631        57.26017        -0.10457
C         53.82393        56.53874         0.13034
C         55.03850        58.70752        -0.04790
C         53.83372        59.38545         0.23856
C         54.95205        61.52350        -0.28000
C         53.78397        60.83109         0.14914
C         56.35916        50.78137        -0.21445
C         57.44008        52.98826        -0.64587
C         56.27207        52.28382        -0.36765
C         57.45838        54.41256        -0.74953
C         56.21035        55.12425        -0.55679
C         57.37022        57.28952        -0.94450
C         56.18544        56.53864        -0.52263
C         57.44847        58.70401        -0.53223
C         56.25208        59.44897        -0.26672
C         57.29173        61.69430        -0.93236
C         56.19572        60.89155        -0.42704
C         58.67271        55.09179        -0.90525
C         59.97439        57.29012        -1.04998
C         58.72281        56.52572        -1.13297
C         59.95168        58.66898        -0.84690
C         58.71384        59.25624        -0.40034
C         59.82011        61.72457        -1.39289
C         58.62580        61.36107        -0.72278
C         61.07112        59.54807        -1.06294
C         60.97347        60.91079        -1.35829
O         57.86242        56.97860        -2.26661
O         40.42901        41.33408         1.50703
O         49.16403        55.68079         2.44010
O         41.42270        51.43846        -0.06394
O         38.09542        52.48751         2.71708
O         47.65943        44.77110         1.73678
O         47.40355        49.36225        -0.81906
O         43.65661        55.89303         2.87176
O         39.15560        56.03903         2.41295
O         42.38231        54.54109        -0.17970
O         48.23067        41.98075        -1.85823
O         37.50063        58.26495         1.91406
O         42.39872        58.73321        -0.82202
O         44.61977        39.42710         1.45135
O         58.82675        60.43187         0.33480
O         50.99991        51.40193        -1.33750
O         45.63855        46.16589        -0.82075
O         44.33720        59.26802         2.38185
O         32.95636        58.52893        -2.58697
O         40.70841        48.01252         2.68644
O         40.43751        37.47193        -1.50670
H         39.51237        37.52635        -1.19708
O         40.52348        53.17872         3.06723
H         39.65300        53.40486         3.47500
O         30.02271        58.65321        -0.34806
H         29.12579        58.26145        -0.29426
O         38.55104        42.96482         2.27400
H         39.21074        42.26018         2.47999
O         51.59941        47.97085         2.11041
H         51.12695        47.18573         2.48609
O         50.27169        45.48872         2.21988
H         49.39270        45.12330         2.49640
O         53.64878        52.34527         1.67122
H         54.37752        51.83417         2.08327
O         40.11348        56.74249        -1.02547
H         40.90597        57.09705        -1.48869
O         37.89124        50.24639        -0.67870
H         38.64957        49.70784        -0.99538
O         51.66123        60.93485         2.56699
H         52.46927        60.42233         2.78384
O         33.47223        59.47758         0.92148
H         34.13759        59.92020         1.48975
O         34.86032        49.80035         2.60374
H         35.10229        50.63820         3.05395
O         57.00521        50.48266         1.03919
H         57.83398        51.00250         1.08391
O         47.73525        62.01405        -0.84184
H         46.84847        62.35171        -1.08353
O         45.54793        49.84766         2.99392
H         45.48134        50.75133         3.37329
O         52.81679        53.08897        -1.80718
H         52.25859        52.39441        -2.23386
O         53.66018        43.76434        -0.76738
H         53.36076        43.95511        -1.67969
O         45.48085        54.19740         3.36643
H         45.04975        54.99527         3.75923
O         45.70075        42.37087        -1.86058
H         46.47249        42.59186        -2.43118
O         39.28604        46.60846        -0.94071
H         39.28759        45.72768        -1.37331
H         29.85968        56.24813        -2.02615
H         28.77402        58.35684        -3.07450
H         30.73447        62.19842        -2.66726
H         28.92925        60.76520        -3.59344
H         32.04278        52.20525        -0.49361
H         30.96603        54.23125        -1.24178
H         33.13576        62.32843        -1.86687
H         34.34066        48.05016         0.33193
H         33.10437        50.14277         0.29905
H         35.48913        62.39046        -1.23602
H         36.68682        43.78641         0.55592
H         35.52880        45.90747         0.26081
H         37.83417        62.47895        -0.57464
H         39.38052        39.53684        -1.09353
H         38.36389        42.29453        -0.98829
H         40.27464        62.57094        -0.16079
H         41.78673        35.44145        -1.57983
H         40.90062        37.38291         0.51566
H         42.78988        62.55973         0.01518
H         45.18912        32.12093        -2.10788
H         43.03634        33.37872        -2.00094
H         45.24667        62.52993         0.27872
H         47.33046        33.26066        -1.53055
H         48.55449        35.30620        -1.01052
H         47.67343        62.47367         1.19887
H         49.78182        37.36737        -0.76633
H         51.06399        39.52154        -0.69233
H         50.13431        62.58135         0.65134
H         52.32658        41.68119        -0.38981
H         53.04852        44.00782         1.17522
H         52.59703        62.61765         0.37553
H         54.73358        45.94451        -0.29095
H         55.97252        48.12793        -0.44338
H         54.88526        62.61009        -0.43946
H         57.00054        50.37008        -1.05095
H         58.38232        52.43789        -0.79497
H         57.03553        62.57970        -1.53305
H         59.61772        54.53543        -0.81489
H         60.92851        56.76656        -1.21217
H         59.84798        62.64757        -1.98970
H         62.04836        59.07123        -1.23565
H         61.89508        61.37409        -1.74778
