         600
 CSIRO Nanostructure Databank - Neutral Graphene Oxide Data Set
C         23.07082        27.43935        -1.06801
C         23.06921        28.81383        -1.05281
C         23.08909        31.74712        -1.01005
C         23.09613        33.12308        -1.01308
C         23.18081        36.03789        -0.59122
C         23.20700        37.42331        -0.55614
C         23.16939        40.35061        -0.70518
C         23.15378        41.72788        -0.78831
C         23.11140        44.63974        -1.04908
C         23.10638        46.02752        -1.02104
C         25.49298        24.59960        -0.93747
C         24.30370        25.29249        -1.02136
C         25.52599        27.41903        -0.93655
C         24.29229        26.71047        -1.01040
C         25.51809        28.84743        -0.94027
C         24.28600        29.55649        -0.99590
C         25.53855        31.69929        -1.03844
C         24.29713        30.99566        -1.01438
C         25.54763        33.13350        -1.13193
C         24.31013        33.86193        -1.08152
C         25.49410        36.04010        -1.40718
C         24.29733        35.29158        -1.02176
C         25.57621        37.48715        -1.17377
C         24.38016        38.17465        -0.84948
C         25.59164        40.33190        -1.05182
C         24.37144        39.61894        -0.85205
C         25.58634        41.75647        -1.10345
C         24.34265        42.47296        -1.00620
C         25.57615        44.65224        -1.42617
C         24.31150        43.89779        -1.09589
C         25.55883        46.07425        -0.91795
C         24.32728        46.75832        -0.87247
C         25.48642        48.83690        -0.35355
C         24.31718        48.16007        -0.60117
C         28.00956        23.14427        -0.70805
C         27.98062        24.55289        -0.66326
C         26.73778        25.27713        -0.83357
C         28.00194        27.40891        -0.78053
C         26.75496        26.69548        -0.84418
C         27.98014        28.82132        -0.87889
C         26.76352        29.55451        -0.91645
C         28.01632        31.70336        -0.93894
C         26.77320        30.98487        -0.97891
C         28.01952        33.13288        -1.02168
C         26.79043        33.81798        -1.18020
C         28.07530        35.99617        -1.32206
C         26.82351        35.24846        -1.48019
C         28.05502        37.43177        -1.36250
C         26.82313        38.16561        -1.28852
C         28.03679        40.33347        -1.26582
C         26.82762        39.61084        -1.19341
C         28.06347        41.75135        -1.16023
C         26.83127        42.47543        -1.15379
C         28.03940        44.60611        -0.90192
C         26.84155        43.89524        -1.12769
C         27.98774        46.01371        -0.63748
C         26.77175        46.75071        -0.61804
C         27.94412        48.88347        -0.01107
C         26.74831        48.16785        -0.31876
C         28.02286        50.28740         0.13727
C         30.34800        23.13552        -0.05789
C         29.17741        22.45319        -0.43304
C         30.38089        24.54985        -0.05083
C         29.19361        25.26211        -0.40797
C         30.46381        27.36746        -0.36248
C         29.22549        26.69061        -0.53469
C         30.54613        28.78825        -0.73118
C         29.24444        29.55000        -1.01130
C         30.48259        31.70946        -0.79889
C         29.24973        31.01273        -0.89354
C         30.49118        33.13073        -0.89778
C         29.26257        33.84821        -1.06188
C         30.57233        35.97230        -1.49256
C         29.26846        35.27162        -1.19909
C         30.53608        37.46236        -1.24291
C         29.31077        38.13210        -1.33856
C         30.60897        40.35432        -1.28865
C         29.29127        39.59702        -1.47481
C         30.54992        41.78104        -0.93782
C         29.30804        42.46612        -0.99976
C         30.51536        44.55092        -0.55374
C         29.28928        43.87899        -0.79299
C         30.50533        46.01949        -0.45272
C         29.19968        46.66248        -0.13354
C         30.46678        48.84952         0.39578
C         29.18458        48.12907         0.21873
C         30.43099        50.24432         0.68430
C         29.19705        50.93129         0.51232
C         32.86078        20.32461         0.29773
C         31.69912        20.97028         0.03121
C         32.75629        23.13213         0.88051
C         31.50293        22.36182         0.44289
C         32.77804        24.59172         0.65429
C         31.60738        25.26936         0.26536
C         32.85334        27.43217         0.32188
C         31.63218        26.69791         0.07682
C         32.87333        28.88558         0.12793
C         31.72232        29.57550        -0.34679
C         32.91263        31.71891        -0.31248
C         31.70788        30.98281        -0.51305
C         32.93067        33.14157        -0.46413
C         31.73352        33.85653        -0.77767
C         32.97108        35.98252        -0.74657
C         31.77144        35.26189        -0.92893
C         32.98586        37.42803        -0.78399
C         31.76804        38.16597        -1.01672
C         32.98034        40.28448        -0.55836
C         31.80239        39.57865        -0.93514
C         32.97819        41.70706        -0.42852
C         31.75149        42.44495        -0.59575
C         32.96348        44.55758        -0.07085
C         31.74167        43.86337        -0.42786
C         32.96808        45.94392         0.18059
C         31.76226        46.75067        -0.07656
C         32.84043        48.73659         0.97513
C         31.66752        48.13080         0.45211
C         32.81276        50.11461         1.35482
C         31.63464        50.88963         1.15334
C         32.86036        52.85465         1.95339
C         31.68598        52.25830         1.52480
C         35.31661        18.78026         0.86612
C         35.22546        20.20861         1.18169
C         34.00836        21.00295         0.85897
C         35.23471        23.12964         1.48513
C         34.01615        22.37403         0.99024
C         35.21250        24.59207         1.10481
C         34.03009        25.29305         0.82277
C         35.22212        27.49509         1.10145
C         34.01225        26.74039         0.70913
C         35.26724        28.97480         0.83079
C         34.06156        29.62738         0.29538
C         35.35047        31.73041         0.13529
C         34.10646        31.01984         0.03280
C         35.37085        33.12983        -0.07305
C         34.15864        33.84939        -0.33972
C         35.42361        35.96896        -0.44855
C         34.17942        35.26670        -0.48745
C         35.43040        37.40862        -0.46268
C         34.18665        38.12601        -0.53248
C         35.39068        40.24621        -0.04057
C         34.20027        39.55684        -0.37483
C         35.39059        41.66900         0.14344
C         34.17663        42.39579        -0.07076
C         35.36457        44.47652         0.54527
C         34.17414        43.81260         0.12203
C         35.32903        45.85435         0.89488
C         34.10841        46.58140         0.73705
C         35.07098        48.47760         1.95178
C         34.01959        47.95001         1.15356
C         34.96267        49.81153         2.42239
C         33.97298        50.70582         1.96480
C         35.34635        52.85349         2.20082
C         34.07398        52.13701         2.13279
C         35.34422        54.26458         2.01847
C         37.77190        18.81449         1.00897
C         36.50731        18.12662         0.90853
C         37.79316        20.21994         1.03042
C         36.55505        20.96968         1.28196
C         37.71577        23.10589         0.85405
C         36.54088        22.43472         1.11612
C         37.75925        24.56574         0.88544
C         36.51542        25.27825         1.26298
C         37.78927        27.46788         0.86143
C         36.53720        26.78109         1.23628
C         37.78634        28.88900         0.68345
C         36.57487        29.63205         0.63229
C         37.82806        31.71563         0.30612
C         36.58073        31.01693         0.35686
C         37.84416        33.12437         0.12629
C         36.61446        33.83637        -0.05604
C         37.90617        35.90506        -0.47248
C         36.62133        35.23087        -0.29881
C         37.90682        37.44676        -0.49455
C         36.63048        38.13287        -0.32420
C         37.85023        40.19165         0.26785
C         36.64057        39.52370        -0.00527
C         37.79974        41.55592         0.90860
C         36.58055        42.35538         0.52587
C         37.80911        44.45844         1.09490
C         36.58756        43.74692         0.73903
C         37.79203        45.82888         1.46685
C         36.47615        46.46881         1.51727
C         38.11780        48.73588         2.49503
C         36.21427        47.66290         2.20249
C         38.02812        50.16002         2.34131
C         36.86633        50.89095         2.62863
C         37.80391        52.95598         1.73998
C         36.64491        52.22747         2.18932
C         37.73109        54.35682         1.50343
C         36.48273        54.98971         1.71638
C         40.24179        15.97663         0.95287
C         39.05294        16.66553         1.02904
C         40.23114        18.80058         0.76620
C         39.01446        18.08595         0.92783
C         40.22768        20.23303         0.67136
C         38.99991        20.94667         0.81067
C         40.17022        23.06922         0.47435
C         38.97437        22.37482         0.70257
C         40.14150        24.54334         0.13247
C         38.92713        25.26732         0.67002
C         40.23417        27.40228         0.55938
C         38.97531        26.72109         0.71380
C         40.25855        28.82903         0.52912
C         39.03631        29.56917         0.53388
C         40.29722        31.68883         0.41980
C         39.05303        30.99014         0.42348
C         40.31711        33.11516         0.35043
C         39.09182        33.82586         0.16109
C         40.34081        35.94746         0.03401
C         39.13371        35.22057        -0.06676
C         40.33165        37.37799        -0.07362
C         39.15531        38.13009        -0.15966
C         40.31157        40.26084         0.34191
C         39.11099        39.53579         0.13826
C         40.30906        41.65241         0.67266
C         39.08172        42.34686         0.80810
C         40.29370        44.47861         1.07047
C         39.06068        43.74574         1.01380
C         40.28227        45.88307         1.30265
C         39.04882        46.55755         1.62180
C         40.45029        48.72145         1.89348
C         39.13306        47.96821         1.91947
C         40.33434        50.17304         1.50779
C         39.13710        50.86325         1.74483
C         40.20448        52.98051         1.09493
C         39.04211        52.26754         1.53202
C         40.14111        54.40067         0.95323
C         38.92786        55.09103         1.13000
C         40.03014        57.21306         0.51467
C         38.90331        56.50997         0.92280
C         42.70276        15.96435         0.66004
C         41.46896        16.66766         0.76370
C         42.69788        18.78726         0.48238
C         41.46645        18.08620         0.67411
C         42.69309        20.21672         0.37117
C         41.44261        20.94228         0.46453
C         42.62685        23.10226         0.21159
C         41.40383        22.36579         0.36936
C         42.65147        24.50383         0.32883
C         41.45069        25.25167         0.41475
C         42.72926        27.38197         0.46039
C         41.46637        26.66456         0.49980
C         42.73648        28.81506         0.45015
C         41.50398        29.53584         0.47431
C         42.76090        31.67468         0.48672
C         41.51914        30.96056         0.46431
C         42.77558        33.09742         0.52794
C         41.54457        33.82833         0.42744
C         42.77690        35.97875         0.51883
C         41.56208        35.25549         0.33249
C         42.82877        37.35879         0.30910
C         41.61478        38.07607        -0.08506
C         42.83401        40.27209         0.47338
C         41.59090        39.60785         0.07928
C         42.80756        41.66212         0.69374
C         41.55269        42.36753         0.75305
C         42.77864        44.49264         0.90114
C         41.53550        43.77569         0.91123
C         42.77037        45.91345         0.92950
C         41.53840        46.61023         1.15743
C         42.75329        48.76640         0.92311
C         41.56975        48.01377         1.20759
C         42.72415        50.17410         0.88918
C         41.48329        50.88048         1.06675
C         42.53150        52.95071         0.09765
C         41.40638        52.27417         0.83820
C         42.58367        54.44162         0.25961
C         41.43180        55.17580         0.88209
C         42.43852        57.25257        -0.08530
C         41.27878        56.58007         0.36653
C         43.88292        16.64038         0.46905
C         45.15537        18.77747         0.18586
C         43.91787        18.06513         0.37279
C         45.15040        20.19682         0.06643
C         43.90421        20.89367         0.13661
C         45.17330        23.09198        -0.20212
C         43.85696        22.34616        -0.10035
C         45.16716        24.51632         0.07388
C         43.96493        25.19759         0.63910
C         45.18694        27.38751         0.30993
C         43.95217        26.68648         0.39313
C         45.20493        28.81286         0.40352
C         43.97362        29.52338         0.45194
C         45.22176        31.66491         0.54477
C         43.98866        30.95623         0.49498
C         45.21560        33.08545         0.65330
C         44.01396        33.78771         0.65563
C         45.28843        35.96552         0.61461
C         44.01026        35.25913         1.00776
C         45.28178        37.38814         0.47360
C         44.04786        38.10243         0.42005
C         45.29108        40.23421         0.52543
C         44.04955        39.52955         0.45790
C         45.29791        41.65651         0.67034
C         44.04799        42.37674         0.80126
C         45.26792        44.53689         0.96268
C         44.01243        43.77942         0.87639
C         45.24995        45.97213         0.64573
C         43.99551        46.65484         0.74930
C         45.20334        48.78769         0.43268
C         43.98847        48.06303         0.69674
C         45.19914        50.19951         0.37916
C         44.00673        50.96041         0.89991
C         45.02429        53.01572        -0.12574
C         43.88323        52.32658         0.29318
C         44.94205        54.41854        -0.46155
C         43.70484        55.14157        -0.16302
C         43.63166        56.57844        -0.27004
C         47.59580        18.76901         0.05631
C         46.40377        18.09188         0.13395
C         47.64012        20.19348         0.01158
C         46.40817        20.90458        -0.03828
C         47.65643        23.01603         0.05007
C         46.44557        22.33364        -0.07417
C         47.63971        24.50283         0.32036
C         46.42321        25.24187        -0.28075
C         47.63510        27.38404         0.17563
C         46.42926        26.69635         0.12928
C         47.67679        28.80245         0.34551
C         46.44993        29.52271         0.42163
C         47.70064        31.65526         0.42394
C         46.46358        30.94624         0.50082
C         47.73253        33.08086         0.48207
C         46.50500        33.80972         0.97090
C         47.71961        35.95585         0.36218
C         46.48604        35.27035         0.59688
C         47.73375        37.37687         0.26707
C         46.50806        38.09483         0.37168
C         47.74899        40.22491         0.25511
C         46.51483        39.52324         0.38837
C         47.74447        41.64986         0.31699
C         46.53173        42.33579         0.59904
C         47.75893        44.52791         0.35034
C         46.58034        43.78567         0.81679
C         47.68904        45.92358         0.16148
C         46.43387        46.64586         0.32564
C         47.58687        48.79364        -0.18151
C         46.41557        48.07616         0.16494
C         47.56855        50.19675        -0.28060
C         46.35534        50.91002        -0.00813
C         47.45346        53.03519        -0.63680
C         46.29811        52.33455        -0.21693
C         47.32689        54.40107        -0.98966
C         46.10547        55.06636        -0.90462
C         50.14864        20.21960         0.10520
C         48.89627        20.90351         0.05562
C         50.16745        23.03730         0.19183
C         48.90417        22.32324         0.11044
C         50.20309        24.45597         0.17911
C         48.93621        25.18396        -0.05502
C         50.17178        27.34571         0.45688
C         48.92100        26.66868        -0.04165
C         50.17063        28.81672         0.15906
C         48.92192        29.50855         0.27794
C         50.14677        31.62866         0.06959
C         48.91898        30.92765         0.24818
C         50.13573        33.04899        -0.00806
C         48.91509        33.77867         0.21671
C         50.11841        35.93533        -0.11160
C         48.93434        35.23184         0.19321
C         50.15791        37.35169        -0.14651
C         48.95920        38.08141         0.06365
C         50.17943        40.22715        -0.19912
C         48.96778        39.51597         0.04279
C         50.16321        41.66855        -0.18038
C         48.96140        42.37057         0.11227
C         50.15222        44.52717        -0.16684
C         48.95269        43.80796         0.08341
C         50.09078        45.94412        -0.24741
C         48.87050        46.62160        -0.19637
C         50.09172        48.82520        -0.54728
C         48.79976        48.04760        -0.67512
C         50.04216        50.24885        -0.66233
C         48.78122        50.93431        -0.58368
C         49.95283        53.04371        -0.90953
C         48.73206        52.33845        -0.71808
C         51.34375        20.89540         0.19270
C         52.65288        23.03535         0.22249
C         51.39985        22.31907         0.22491
C         52.66438        24.45917         0.16924
C         51.42356        25.17109         0.17535
C         52.63246        27.30371        -0.03843
C         51.44218        26.60966         0.11439
C         52.61361        28.75768        -0.45541
C         51.35872        29.49370        -0.05878
C         52.60760        31.62591        -0.17529
C         51.37069        30.91881        -0.09473
C         52.57943        33.03213        -0.23379
C         51.35578        33.72428        -0.22527
C         52.58071        35.90742        -0.81993
C         51.31556        35.17410        -0.50285
C         52.57428        37.37914        -0.69082
C         51.39657        38.06393        -0.41474
C         52.58612        40.21314        -0.77543
C         51.39229        39.51220        -0.45019
C         52.51292        41.66576        -0.97892
C         51.33795        42.40183        -0.50534
C         52.61160        44.51858        -0.61677
C         51.37475        43.81244        -0.43910
C         52.64519        45.97189        -0.36434
C         51.34657        46.71602        -0.24153
C         52.55580        48.86844        -0.68309
C         51.31700        48.16625        -0.51450
C         52.52122        50.27867        -0.84303
C         51.25649        50.97905        -0.80670
C         51.16810        52.39324        -0.93515
C         55.09842        23.06099         0.20376
C         53.90958        22.36550         0.24547
C         55.13671        24.48151         0.11783
C         53.89812        25.18573         0.09990
C         55.11179        27.34809        -0.07653
C         53.88814        26.61294        -0.02833
C         55.11387        28.79084        -0.11458
C         53.88912        29.51246        -0.15380
C         55.11304        31.66109        -0.12787
C         53.87368        30.91585        -0.14243
C         55.12193        33.07112        -0.14029
C         53.83186        33.83134         0.02632
C         55.06108        36.01394        -0.25301
C         53.90552        35.14435        -0.78670
C         55.12777        37.34622        -0.97490
C         53.80236        38.09518        -1.04867
C         55.06799        40.25606        -1.06432
C         53.81952        39.56021        -0.99502
C         55.09127        41.68078        -1.06778
C         53.82949        42.42727        -1.17811
C         55.06466        44.57369        -0.90288
C         53.81977        43.86790        -0.88342
C         55.05854        46.01885        -0.88655
C         53.85660        46.72965        -0.71835
C         55.02501        48.87066        -0.99306
C         53.81098        48.15334        -0.77746
C         54.95459        50.29024        -1.10580
C         53.75696        50.96394        -1.04257
C         57.63374        24.54698         0.06574
C         56.37432        25.21587         0.04936
C         57.58758        27.37196        -0.05401
C         56.35393        26.64111        -0.02722
C         57.59364        28.80217        -0.09613
C         56.35002        29.51639        -0.10901
C         57.58980        31.66521        -0.17692
C         56.35300        30.93976        -0.14270
C         57.58828        33.09675        -0.23221
C         56.34183        33.81496        -0.22107
C         57.56588        35.96593        -0.41415
C         56.35698        35.23688        -0.31551
C         57.56638        37.41443        -0.56478
C         56.35678        38.13019        -0.80919
C         57.55228        40.27361        -0.86384
C         56.32221        39.53721        -0.94629
C         57.54833        41.70478        -0.93113
C         56.29767        42.41189        -0.98825
C         57.52589        44.57487        -1.04202
C         56.28437        43.85402        -0.98929
C         57.51518        46.00689        -1.10330
C         56.28660        46.73610        -1.03895
C         57.52717        48.83664        -1.21821
C         56.27606        48.15842        -1.08552
C         58.81732        25.24502         0.02246
C         60.04387        27.39413        -0.05933
C         58.82266        26.66705        -0.03087
C         60.04421        28.76931        -0.10379
C         58.82771        29.51123        -0.12093
C         60.03255        31.70261        -0.20469
C         58.82599        30.95412        -0.16673
C         60.02804        33.07960        -0.25871
C         58.81379        33.81997        -0.27864
C         60.01225        36.01685        -0.37218
C         58.80850        35.26203        -0.35603
C         60.00604        37.39323        -0.45790
C         58.79334        38.12987        -0.57155
C         59.98697        40.32218        -0.70347
C         58.78461        39.56958        -0.71687
C         59.98233        41.69785        -0.82527
C         58.77251        42.42803        -0.93401
C         59.96936        44.62121        -1.14591
C         58.76303        43.87566        -1.04276
C         59.96195        45.99797        -1.23778
C         58.74075        46.72028        -1.20897
C         58.71324        48.14498        -1.27532
O         52.13149        46.37278         0.96838
O         26.07572        35.61692        -2.68342
O         54.46396        37.49007        -2.24214
O         41.73689        38.96648        -1.23928
O         44.39715        22.71708        -1.43047
O         38.00390        36.65462        -1.72488
O         30.07247        40.06744        -2.62636
O         46.08974        44.20654         2.14217
O         52.98265        42.06531        -2.31557
O         29.05735        47.07590         1.27425
O         35.81853        20.53007         2.48772
O         36.64293        26.05642         2.51197
O         35.02567        28.45336         2.19693
O         31.76018        22.65762         1.85140
O         48.99684        25.96102        -1.32173
O         35.86045        50.27611         3.39624
O         37.09702        48.07951         3.20262
O         30.09650        29.05280        -2.10433
O         51.71909        35.44764        -1.92260
O         31.28998        46.68956        -1.49110
O         50.05724        27.24062         1.92147
H         50.81946        27.71329         2.31759
O         42.19926        52.71210        -1.33994
H         42.89336        53.15946        -1.87123
O         48.59525        47.91990        -2.13724
H         48.48484        48.82688        -2.49512
O         39.98738        24.59691        -1.33688
H         40.79191        24.19382        -1.72896
O         54.24873        34.76900        -2.12960
H         53.43397        34.85020        -2.67672
O         30.73160        35.84204        -2.95920
H         30.00228        36.34712        -3.37942
O         53.71163        34.14453         1.46428
H         53.74117        33.29253         1.94949
O         35.16528        23.11225         2.94366
H         35.27925        22.16849         3.21750
O         46.57751        33.80791         2.45322
H         46.64630        32.87124         2.73871
O         41.81625        55.35373         2.31883
H         41.11649        55.90359         2.73305
O         44.09217        25.06049         2.12067
H         43.34801        25.56175         2.51921
O         46.50120        25.18203        -1.72950
H         47.38481        25.54646        -1.99051
O         43.98097        35.30067         2.47599
H         44.81897        34.87596         2.78141
O         37.63914        41.27071         2.36005
H         37.59241        42.13702         2.81901
O         54.83471        36.42990         1.11840
H         54.66552        35.62229         1.66176
O         47.51513        24.65136         1.76119
H         48.29391        24.23423         2.18542
O         44.29510        51.19148         2.34314
H         44.30133        50.31415         2.78290
O         52.55380        28.70994        -1.92818
H         53.37384        28.27222        -2.24133
O         40.88243        48.74641         3.32238
H         40.95359        47.81367         3.61941
O         25.56509        44.78449        -2.91246
H         24.73690        45.25691        -3.14622
H         22.12226        26.88604        -1.12365
H         22.10694        29.33992        -1.10222
H         22.12112        31.23009        -0.98642
H         22.13709        33.65832        -1.00052
H         22.25914        35.52137        -0.28989
H         22.29365        37.94692        -0.24571
H         22.21842        39.82520        -0.54824
H         22.19177        42.24619        -0.68489
H         22.14423        44.11978        -1.00447
H         22.15215        46.57177        -0.98695
H         25.46099        23.50236        -0.93301
H         23.35048        24.74853        -1.08640
H         25.44091        49.91316        -0.13898
H         23.35511        48.69206        -0.58231
H         27.10375        22.57214        -0.94441
H         27.12495        50.90253        -0.01438
H         29.16066        21.35545        -0.44544
H         29.16292        52.01896         0.66426
H         32.95813        19.27173         0.00254
H         30.90917        20.45335        -0.53071
H         32.82327        53.93232         2.15842
H         30.78716        52.88312         1.43224
H         34.40649        18.21435         0.62675
H         34.40416        54.82540         2.09305
H         36.51084        17.04363         0.72573
H         36.38647        56.07669         1.59286
H         40.25271        14.88044         1.03740
H         38.12393        16.10237         1.18781
H         39.94242        58.28528         0.28261
H         37.95767        57.05737         1.03086
H         42.69881        14.86705         0.73027
H         42.37980        58.32925        -0.30586
H         44.81208        16.06174         0.38725
H         44.51487        57.14466        -0.59471
H         48.52766        18.18894         0.05302
H         46.43047        16.99588         0.18636
H         48.20159        54.96025        -1.34767
H         46.07378        56.12956        -1.17960
H         50.17485        19.12265         0.06865
H         49.94120        54.13794        -1.00332
H         52.27340        20.31141         0.22002
H         52.08059        52.99248        -1.05468
H         56.03515        22.48862         0.22846
H         53.94665        21.26939         0.30160
H         55.87254        50.87116        -1.26711
H         53.76402        52.05624        -1.15629
H         57.66992        23.45081         0.11439
H         57.55287        49.93368        -1.26274
H         59.77680        24.70816         0.03571
H         60.99430        26.84142        -0.04442
H         61.00798        29.29452        -0.12463
H         61.00119        31.18592        -0.19718
H         60.99257        33.60284        -0.29356
H         60.98180        35.50550        -0.30705
H         60.97035        37.91817        -0.45888
H         60.95381        39.81348        -0.59490
H         60.94541        42.22489        -0.81364
H         60.93558        44.09987        -1.16452
H         60.90932        46.54946        -1.32389
H         59.66423        48.68989        -1.36568
