         294
 CSIRO Nanostructure Databank - Neutral Graphene Oxide Data Set
C          1.31159         2.35801        -0.32917
C          1.25844         3.68510        -0.70209
C          2.51307         1.62501        -0.34995
C          2.46655         4.37320        -1.17599
C          1.29131         6.72257        -1.41909
C          1.33383         8.02091        -1.75887
C          2.47726         5.83367        -1.56400
C          2.61446         8.64864        -2.28272
C          1.39243        10.96090        -2.10993
C          1.33616        12.20413        -1.59987
C          2.66268        10.19991        -2.24634
C          2.53882        13.03926        -1.35577
C          1.31885        14.53881         0.41223
C          1.34770        15.52896         1.34376
C          2.51518        14.21240        -0.38217
C          2.52847        16.34025         1.52126
C          2.51561        17.51119         2.34096
C          3.75704         2.24912        -0.65562
C          3.76692         3.69073        -0.91929
C          4.95291         1.55731        -0.62510
C          4.93871         4.39325        -0.81230
C          3.85581         6.52121        -1.66400
C          3.75145         8.04682        -1.39658
C          4.87312         5.90087        -0.67789
C          5.13887         8.74639        -1.60440
C          3.93123        10.93359        -1.91124
C          3.87935        12.42388        -1.65813
C          5.06352        10.21916        -1.16330
C          5.15088        13.08923        -1.22303
C          3.79761        14.82499         0.03738
C          3.72042        15.95838         0.86854
C          5.06529        14.35739        -0.44796
C          4.85926        16.93661         0.78343
C          3.63045        18.31316         2.49691
C          4.85499        18.03634         1.81679
C          6.25914         2.24239        -0.92145
C          6.20695         3.72264        -0.58091
C          7.40486         1.53070        -0.25383
C          7.32596         4.40848        -0.18836
C          6.27390         6.52280        -0.87213
C          6.31797         8.03820        -0.93954
C          7.26746         5.90850         0.12773
C          7.53095         8.66366        -0.84006
C          6.40236        10.93230        -1.23136
C          6.40927        12.27893        -1.10955
C          7.68812        10.11724        -1.31445
C          7.70586        13.06174        -1.01879
C          6.25558        14.99841        -0.09342
C          6.22180        16.24038         0.77162
C          7.54192        14.37295        -0.23280
C          7.33853        17.25229         0.41671
C          6.01307        18.77212         1.99912
C          7.27841        18.41716         1.41363
C          8.52928         2.19551         0.15412
C          8.59124         3.67623         0.02375
C          9.71685         1.50723         0.56100
C          9.78832         4.40320         0.52862
C          8.61004         6.61329         0.07410
C          8.71723         7.90478        -0.37472
C          9.69038         5.89097         0.86818
C         10.05356         8.58524        -0.39790
C          8.85827        10.85615        -0.65783
C          8.85707        12.20070        -0.49997
C         10.12748        10.08592        -0.50907
C         10.13464        12.98016        -0.24828
C          8.65028        15.01686         0.28515
C          8.72325        16.53133         0.34939
C          9.88672        14.24250         0.58421
C          9.73157        17.12113         1.31636
C          8.41101        19.15843         1.67035
C          9.71042        18.62041         1.32329
C         10.86851         2.16845         0.98852
C         10.76497         3.62290         1.42251
C         12.07203         1.44279         1.08340
C         12.14973         4.31433         1.59253
C         11.08511         6.45303         0.66130
C         11.25549         7.82429         0.09574
C         12.21170         5.85837         1.52181
C         12.51665         8.55639         0.40777
C         11.33111        10.79094         0.01853
C         11.28077        12.12339         0.26728
C         12.64736        10.01308         0.03269
C         12.47459        12.81377         0.84130
C         11.04155        14.91395         1.27756
C         11.00330        16.39747         1.59333
C         12.38753        14.22369         1.30804
C         12.29809        17.25499         1.60397
C         10.86784        19.29613         1.12229
C         12.07053        18.49685         0.69137
C         13.34374         2.04339         1.21248
C         13.41616         3.49814         1.55550
C         14.49285         1.27263         1.01243
C         14.79373         4.16967         1.51895
C         13.52296         6.38258         0.92110
C         13.62220         7.86910         0.78161
C         14.76262         5.56483         0.88781
C         14.93914         8.50437         1.21141
C         13.73188        10.70865         0.89837
C         13.81652        12.18959         0.49605
C         15.07476         9.99944         0.91350
C         15.00039        12.91374         1.08612
C         13.65366        15.05515         1.51539
C         13.51196        16.49371         1.06456
C         14.92325        14.33666         1.04962
C         14.54013        17.17987         0.49213
C         13.33558        19.30012         0.56419
C         14.49992        18.64972         0.35488
C         15.80034         1.84652         0.89670
C         15.82203         3.33355         0.77786
C         16.95716         1.12189         0.73266
C         17.07732         4.02950         0.38521
C         16.08176         6.24497         0.76156
C         16.12780         7.75145         0.59285
C         17.20095         5.49810         0.59461
C         17.44812         8.31779         1.13447
C         16.28631        10.64959         1.00871
C         16.33965        12.20079         1.19659
C         17.53570         9.85176         1.03358
C         17.32613        12.95348         0.23925
C         15.99045        15.09665         0.57795
C         15.70461        16.41751        -0.10014
C         17.35697        14.48143         0.47982
C         16.94289        17.26987        -0.30388
C         15.76342        19.44740         0.06919
C         16.72764        18.66491        -0.78476
C         18.30093         1.81446         0.83539
C         18.30976         3.17777         0.09910
C         19.50343         1.03336         0.35578
C         19.65148         3.89493         0.32907
C         18.59420         6.07084         0.77088
C         18.67357         7.61911         0.46355
C         19.62312         5.34301        -0.18642
C         20.02845         8.14883         0.98681
C         18.82537        10.34373         1.07659
C         18.77054        12.56776         0.41355
C         20.05873         9.64591         0.75550
C         19.77877        13.19177        -0.28326
C         18.31540        15.13839        -0.51582
C         18.22576        16.60400        -0.62946
C         19.49766        14.50647        -0.86014
C         19.23269        17.38512        -1.46687
C         17.46835        19.14565        -1.79989
C         18.45343        18.23053        -2.50615
C         20.63470         1.64893        -0.12565
C         20.75883         3.06510        -0.27851
C         21.86721         3.73637        -0.86017
C         21.02774         5.92622        -0.07904
C         21.22197         7.35163         0.40121
C         21.99999         5.11105        -0.85249
C         22.41041         8.12752        -0.00217
C         21.24113        10.26411         0.39472
C         21.13663        12.68953        -0.30911
C         22.41044         9.48048         0.02606
C         22.10319        13.36513        -1.02554
C         20.54746        15.18385        -1.60266
C         20.25678        16.49998        -2.16907
C         21.79177        14.58396        -1.69842
C         20.92582        17.03091        -3.23166
C         19.41748        18.94394        -3.42516
C         20.57365        18.33518        -3.76639
O         21.52008         6.20886         1.26860
O          2.30998         4.82528        -2.60947
O         10.12951         3.61252         2.69142
O         19.10038        11.68375         1.40509
O          8.10589        13.43670        -2.32138
O         11.44971         6.60743        -0.72729
O         13.91512         5.67109        -0.30481
O          2.34601        14.38415        -1.85817
O          3.59727        10.65131        -3.29320
O         12.75701         3.81946         2.83028
O         12.37747        13.11173         2.27872
O         16.01351         3.73960        -0.61460
O         10.39183         9.23471        -1.68090
O         21.53819        11.62805         0.49650
O         18.96575         5.79891         2.07063
O         10.06383        14.12670         2.03286
O          4.66520        13.19631        -2.60803
O          9.72241         4.09583        -0.87532
O         17.96898        17.20924         0.75054
O         10.00041        16.61854         2.65012
O          6.44089        15.81427         2.13853
H          7.31283        15.36591         2.20065
O          4.34839         6.31843        -2.99220
H          3.76302         5.65291        -3.42655
O          9.35138        16.83598        -0.93428
H          8.62041        17.07925        -1.55724
O          6.79956         6.05722         1.49771
H          7.60971         6.02792         2.08453
O         16.04886         7.98661        -0.84146
H         15.27556         7.48190        -1.18250
O         18.28362         2.88432        -1.32161
H         17.32639         2.82157        -1.56839
O         15.31931        16.04430        -1.46254
H         14.44967        15.59094        -1.43472
O         17.69228        17.27757        -3.29750
H         17.18304        17.77320        -3.97152
O          9.32459         6.01349         2.26477
H          9.62170         5.15433         2.72561
O         13.07741         9.98060        -1.36091
H         12.30408         9.63939        -1.87998
O          4.36588         6.10161         0.66812
H          5.11337         5.94900         1.30446
O         16.90812        12.67505        -1.10336
H         17.32176        13.32557        -1.71005
O          5.42299         8.75839        -3.01324
H          5.45317         7.81681        -3.31229
O          4.60823        17.58482        -0.50950
H          3.68911        17.92629        -0.50216
O         12.59030        17.69571         2.93178
H         12.94613        16.91964         3.42388
O         17.96393        14.67029         1.79002
H         18.08548        15.64525         1.89667
O         11.83048        18.00419        -0.65793
H         10.88826        17.70464        -0.75779
O         12.07837         6.37624         2.85501
H         12.09640         5.61747         3.48008
O         17.46926         8.00041         2.52541
H         18.39888         8.11370         2.85218
O         20.05384         3.99383         1.68942
H         19.49753         3.41473         2.27068
O         18.44928         2.06296         2.27822
H         18.45432         1.19650         2.73652
O          4.73081        10.35665         0.24405
H          4.01273         9.70523         0.45602
O          2.74215         8.25748        -3.64969
H          3.46350         8.81297        -4.03163
O         16.74735        12.41093         2.56118
H         17.71492        12.24113         2.63126
O         18.68816         7.86417        -0.93111
H         17.75981         7.79852        -1.27470
O          6.48567         2.14343        -2.37019
H          7.19238         2.78284        -2.60402
O         16.42679        19.76105         1.30840
H         16.87338        18.94831         1.62926
O         10.59029        13.45389        -1.54253
H          9.76013        13.57199        -2.10684
O         19.97262        18.26569        -0.60225
H         19.48139        18.32033         0.24977
O          6.72769         6.08744        -2.18095
H          7.57530         6.54180        -2.37708
O          8.01732        10.03412        -2.72372
H          8.04698        10.95296        -3.07166
O         20.11237         8.02749         2.42273
H         20.10282         7.04415         2.60425
O          7.14011        17.81531        -0.89231
H          6.18201        18.02474        -1.01587
O         14.95278         8.35614         2.64472
H         14.23285         8.92956         2.99411
O         19.20281         5.40295        -1.53401
H         18.74790         4.55306        -1.76867
O          3.25074         8.28103        -0.05776
H          3.62590         7.58983         0.55062
O         15.27701         4.28629         2.86782
H         14.49087         4.37812         3.45521
O         13.22519        10.61151         2.25584
H         13.58765        11.35333         2.78716
O         14.05356        12.36547        -0.91869
H         13.88686        11.50776        -1.39094
O         13.81853        15.16585         2.96422
H         13.52334        14.30616         3.34735
H          0.38422         1.84556        -0.03505
H          0.29152         4.20528        -0.74752
H          2.50028         0.55343        -0.10485
H          0.34438         6.27377        -1.08163
H          0.41671         8.62225        -1.67256
H          0.45191        10.46365        -2.38919
H          0.36210        12.70899        -1.51702
H          0.38683        13.99068         0.21573
H          0.44457        15.77543         1.92080
H          1.58898        17.76158         2.87735
H          4.95726         0.47973        -0.40044
H          3.58852        19.17465         3.18004
H          7.37089         0.43137        -0.19862
H          6.00105        19.61874         2.70489
H          9.75987         0.41812         0.39468
H          8.34014        20.11646         2.20972
H         12.03604         0.35764         0.89065
H         10.90860        20.39568         1.15345
H         14.37964         0.18580         0.87662
H         13.27935        20.39636         0.48100
H         16.92229         0.02124         0.77108
H         15.49226        20.41813        -0.41482
H         19.47168        -0.06539         0.41620
H         17.34439        20.18623        -2.14173
H         21.47288         1.01951        -0.46526
H         22.64647         3.12772        -1.34517
H         22.86265         5.58240        -1.34608
H         23.31838         7.57605        -0.28685
H         23.31747        10.03636        -0.25043
H         23.13125        12.98193        -1.05461
H         22.59902        15.09662        -2.24050
H         21.72930        16.46555        -3.72722
H         19.12957        19.90903        -3.86967
H         21.25678        18.80078        -4.49232
