         646
 CSIRO Nanostructure Databank - Neutral Graphene Oxide Data Set
C          6.08143        31.67525        -0.97826
C          6.06181        33.04040        -0.98951
C          8.35607        27.41046         0.40193
C          8.27245        28.87468         0.42746
C          7.17119        29.57772        -0.27310
C          8.54517        31.63323        -0.53977
C          7.24894        30.90477        -0.58918
C          8.51602        33.13287        -0.54976
C          7.22282        33.84359        -0.67708
C          8.38795        35.98756        -0.29822
C          7.19576        35.21390        -0.58012
C          8.36290        37.37557        -0.28119
C         10.84643        23.22272         0.44967
C         10.80865        24.61262         0.59290
C          9.59432        25.31750         0.56846
C         10.63728        27.43042         1.47231
C          9.49553        26.72497         0.76741
C         10.78098        28.89785         1.07523
C          9.55003        29.63104         0.69101
C         10.85227        31.75963         0.57922
C          9.80834        30.89639        -0.10397
C         10.78709        33.15293         0.53214
C          9.66747        33.87875        -0.00333
C         10.79655        36.03593         0.36236
C          9.61267        35.27477         0.02452
C         10.75690        37.48408         0.28677
C          9.53834        38.16291        -0.00555
C         10.72645        40.32150         0.19933
C          9.54795        39.57203        -0.04981
C         10.76677        41.73783         0.00080
C         13.31058        18.99299        -0.42545
C         13.23976        20.25387         0.32818
C         12.04278        21.10557         0.18639
C         13.35563        23.16832         0.62666
C         12.05678        22.46206         0.41891
C         13.32041        24.60398         1.00583
C         12.09831        25.40806         0.58703
C         13.11929        27.37214         1.83181
C         11.95135        26.70921         1.31690
C         13.14788        28.93225         1.78700
C         11.95108        29.60282         1.22800
C         13.20307        31.74157         1.36471
C         12.01539        31.05899         1.05989
C         13.19510        33.20608         1.46795
C         11.88291        33.94561         1.10592
C         13.18919        36.10896         1.17634
C         11.93015        35.37204         0.80075
C         13.20546        37.48564         0.56218
C         11.93083        38.23238         0.52161
C         13.17134        40.38172         0.83777
C         11.93898        39.62914         0.49501
C         13.11667        41.91399         0.82776
C         11.89630        42.54282         0.19877
C         12.77037        44.88559        -0.08437
C         11.86027        43.85273        -0.38999
C         13.17711        46.03943        -0.75783
C         15.59428        14.95539        -1.92546
C         15.72513        16.25355        -1.35694
C         14.57383        17.05972        -1.31083
C         15.75584        18.98894        -0.29068
C         14.51479        18.36141        -0.71279
C         15.75373        20.06464         0.56608
C         14.51103        20.83405         0.89837
C         15.73754        23.12831         1.55412
C         14.59473        22.36290         0.96656
C         15.73235        24.54233         1.56735
C         14.46346        25.23575         1.43127
C         15.71380        27.42426         1.93503
C         14.42326        26.64298         1.89246
C         15.64258        28.89071         1.76320
C         14.46578        29.59783         1.68956
C         15.65099        31.77120         1.69983
C         14.47202        31.06024         1.54622
C         15.70645        33.27407         1.85517
C         14.44439        33.94827         1.41784
C         15.71726        36.10229         0.93371
C         14.43700        35.30653         0.76611
C         15.73891        37.45329         0.81445
C         14.49220        38.22242         0.55009
C         15.70876        40.33752         0.83089
C         14.48458        39.68561         0.73341
C         15.73188        41.82486         1.09428
C         14.45250        42.57044         0.76450
C         15.75087        44.67318         0.40173
C         14.56305        43.92857         0.78191
C         15.65274        46.01299        -0.10386
C         14.44723        46.69967        -0.50979
C         15.69689        48.85204        -0.82393
C         14.51536        48.09112        -0.81953
C         15.73166        50.26551        -0.91570
C         18.15061        10.53473        -2.28972
C         18.03196        11.91506        -1.65220
C         16.88868        12.73178        -2.26908
C         18.41663        14.83661        -0.83301
C         16.52351        13.90224        -1.65781
C         18.35705        16.19792        -0.95539
C         17.06174        16.93031        -1.10070
C         18.34277        19.24496        -0.46371
C         17.05251        18.41179        -0.73023
C         18.25208        20.18553         0.72683
C         16.99944        20.45366         1.18304
C         18.20759        23.09732         1.75553
C         16.93888        22.49162         1.90841
C         18.18529        24.52287         1.73910
C         16.96972        25.24794         1.75504
C         18.18140        27.41259         1.63214
C         17.00170        26.70761         1.72371
C         18.20953        28.87845         1.42761
C         16.91273        29.61243         1.51653
C         18.26306        31.77652         1.82073
C         16.93202        31.05852         1.87698
C         18.26551        33.22055         1.53919
C         16.97092        33.87480         1.25316
C         18.26314        36.06868         1.03375
C         16.98696        35.33259         0.89280
C         18.25378        37.46329         0.97147
C         17.01817        38.17749         0.47735
C         18.19666        40.37240         0.88516
C         16.96073        39.65449         0.78390
C         18.19457        41.76783         0.83711
C         16.92910        42.44744         0.37693
C         18.21500        44.62659         0.21529
C         16.95770        43.96043         0.40548
C         18.20300        46.00271        -0.09741
C         16.93591        46.62989        -0.48296
C         18.23842        48.86392        -0.79581
C         16.97025        48.11307        -0.86995
C         18.19190        50.24384        -0.95342
C         16.94620        50.97911        -1.01818
C         18.17659        53.13190        -1.30076
C         16.98532        52.39124        -1.23944
C         18.22749        54.52385        -1.49792
C         20.87026         6.62158        -3.71714
C         20.73314         7.90775        -3.16894
C         19.47882         8.48548        -2.87351
C         20.56766        10.59141        -2.18215
C         19.34546         9.83578        -2.39483
C         20.48474        11.96151        -2.14534
C         19.36636        12.72515        -1.68967
C         20.85588        14.66693        -0.83324
C         19.57915        14.02118        -1.17903
C         20.81499        16.06261        -0.37928
C         19.63847        16.91617        -0.76010
C         20.64301        18.84647         0.58232
C         19.59677        18.36908        -0.37506
C         20.66016        20.26607         1.02158
C         19.44471        20.92228         1.19598
C         20.66994        23.06048         1.54169
C         19.43076        22.32515         1.60317
C         20.68557        24.45335         1.52183
C         19.47270        25.22192         1.82095
C         20.70768        27.48067         1.43343
C         19.48173        26.74327         1.77090
C         20.72040        28.88368         1.42228
C         19.49412        29.62416         1.54746
C         20.74091        31.75232         1.39795
C         19.51558        31.01814         1.55987
C         20.72776        33.18206         1.38827
C         19.46932        33.90282         1.38878
C         20.69339        36.05813         1.42131
C         19.47723        35.35090         1.26391
C         20.68865        37.50189         1.37856
C         19.45798        38.19786         1.15350
C         20.67654        40.30244         1.01675
C         19.45244        39.62388         1.05472
C         20.65372        41.73752         0.64418
C         19.44846        42.55847         1.07644
C         20.68727        44.54639         0.03219
C         19.42479        43.90831         0.40466
C         20.70910        46.05446        -0.18741
C         19.44608        46.82660         0.11569
C         20.71261        48.82833        -0.64434
C         19.48404        48.18142        -0.55787
C         20.75925        50.21500        -1.13132
C         19.44047        50.95748        -1.22898
C         20.69743        53.07903        -1.68960
C         19.48716        52.44265        -0.97802
C         20.70522        54.56988        -1.46950
C         19.45564        55.24879        -1.51965
C         20.65482        57.39084        -1.60758
C         19.47257        56.67674        -1.61025
C         20.60169        58.88099        -1.87886
C         23.47168         4.13662        -4.82076
C         22.22824         4.71388        -4.56404
C         23.35477         6.67292        -3.67056
C         22.14166         6.01110        -3.99156
C         23.30751         8.03986        -3.13151
C         21.97930         8.68684        -2.91722
C         23.13250        10.44452        -1.38825
C         21.87192         9.88405        -2.02228
C         23.26232        11.84753        -0.92195
C         22.37039        12.79605        -1.33403
C         23.10109        14.45190         0.35797
C         22.07113        14.00264        -0.65765
C         23.27739        15.94006         0.17778
C         21.93275        16.64564         0.15845
C         23.10887        18.62273         1.18545
C         21.85388        17.99906         0.73509
C         23.19399        20.11391         1.03361
C         21.94547        20.85510         1.42884
C         23.24224        23.09473         1.27500
C         21.97910        22.35647         1.56844
C         23.19835        24.46472         1.16838
C         21.90887        25.18630         1.17007
C         23.20817        27.41247         1.28263
C         21.92488        26.70827         1.14108
C         23.23491        28.88833         0.97742
C         21.94239        29.62446         1.24302
C         23.26133        31.71394         0.85352
C         21.96089        31.01040         1.23306
C         23.23859        33.22346         1.11201
C         21.94506        33.92852         1.36849
C         23.16339        36.04765         1.92645
C         21.92505        35.32381         1.52554
C         23.15607        37.58633         1.98307
C         21.89884        38.23894         1.44974
C         23.18268        40.36281         1.05093
C         21.91654        39.62163         1.17439
C         23.20797        41.73925         0.72193
C         21.96170        42.45312         0.43935
C         23.17321        44.62262         0.31883
C         21.96788        43.90900         0.33244
C         23.17324        46.07744         0.16121
C         21.98715        46.77442        -0.01510
C         23.14113        48.95017        -0.16622
C         21.96261        48.21173        -0.22871
C         23.19172        50.33694        -0.56365
C         21.99647        51.00960        -0.99458
C         23.17661        53.14501        -1.19194
C         21.98475        52.39196        -1.26347
C         23.17299        54.56387        -1.25919
C         21.91526        55.27097        -1.40739
C         23.12787        57.40878        -1.32928
C         21.90882        56.70605        -1.44957
C         23.09554        58.87716        -1.20813
C         21.89877        59.61873        -1.62404
C         23.22492        61.67692        -1.80168
C         21.96933        60.97387        -1.79489
C         24.66009         4.80726        -4.52117
C         25.83491         6.81754        -3.62895
C         24.62731         6.09399        -3.92675
C         25.83221         8.01717        -2.89533
C         24.52275         8.49510        -2.38501
C         25.70272        10.47997        -1.27252
C         24.45227         9.72003        -1.52918
C         25.68780        11.68163        -0.53769
C         24.38357        12.22974         0.02165
C         25.59070        14.38933         0.59191
C         24.43614        13.74026         0.23626
C         25.57402        15.77706         1.09481
C         24.35843        16.46513         1.11083
C         25.93427        18.86032         1.33478
C         24.12216        17.80190         1.61093
C         25.75345        20.06784         0.68499
C         24.47016        20.87110         0.75656
C         25.63660        23.12761         0.85257
C         24.48811        22.36797         0.97785
C         25.67405        24.56064         1.08603
C         24.40795        25.28882         0.76600
C         25.65343        27.38651         1.43591
C         24.41209        26.71707         1.28116
C         25.68047        28.75962         1.89807
C         24.38615        29.60876         1.66389
C         25.75084        31.70657         1.63821
C         24.49339        31.03973         1.47081
C         25.79988        33.15347         1.63803
C         24.53052        33.90580         1.43413
C         25.76652        36.02088         1.89015
C         24.46987        35.30381         1.95668
C         25.68651        37.44184         1.47122
C         24.39736        38.19162         1.33666
C         25.63277        40.37503         0.96249
C         24.41683        39.67864         1.15883
C         25.65601        41.76837         0.75453
C         24.42638        42.48180         0.64683
C         25.64292        44.66463         0.23622
C         24.39619        43.90791         0.44609
C         25.61494        46.14482         0.35554
C         24.42405        46.81098         0.27107
C         25.67232        48.98948        -0.00361
C         24.38188        48.32049         0.43515
C         25.66353        50.35114        -0.39469
C         24.41788        51.01920        -0.62681
C         25.69357        53.15510        -0.86439
C         24.46988        52.38411        -1.25819
C         25.63648        54.63528        -0.63077
C         24.37661        55.30749        -1.12655
C         25.63384        57.44913        -1.21815
C         24.36276        56.71627        -1.18786
C         25.65844        58.82338        -1.33593
C         24.44369        59.63243        -1.19844
C         24.41167        61.03502        -1.62163
C         26.98186         8.73427        -2.52875
C         28.13316        10.63469        -1.44371
C         26.93833         9.94003        -1.75001
C         28.12469        11.82433        -0.70008
C         26.88821        12.36248        -0.25033
C         28.19605        14.27005         0.87613
C         26.87027        13.60994         0.56142
C         28.22677        15.74682         1.18365
C         26.90137        16.45840         1.36621
C         28.22153        18.55900         0.40546
C         26.92761        17.89861         0.91697
C         28.18617        19.99792         0.23240
C         26.91939        20.52243        -0.00708
C         28.11736        23.10861         0.79404
C         26.91472        22.65917         0.34881
C         28.12735        24.41377         1.55700
C         26.85805        25.19954         1.26959
C         28.19338        27.31759         1.41448
C         26.90565        26.67740         0.97342
C         28.16882        28.80063         1.44640
C         26.99335        29.50170         2.10918
C         28.22969        31.69053         1.81157
C         26.96706        30.99405         1.79899
C         28.25472        33.14763         1.83644
C         26.99065        33.85797         1.85056
C         28.25184        36.06043         1.92295
C         26.95511        35.32555         1.88266
C         28.23765        37.54262         1.66878
C         26.93005        38.24538         1.51985
C         28.19485        40.31725         0.92473
C         26.90453        39.57524         0.81479
C         28.17076        41.65831         0.47419
C         26.97524        42.52523         0.83500
C         28.18721        44.76774         0.47920
C         26.95000        43.94508         0.24491
C         28.19137        46.21583         0.77890
C         26.86830        46.91708         0.59897
C         28.13558        48.98901        -0.06609
C         26.89589        48.32749         0.16387
C         28.12917        50.36604        -0.40896
C         26.90182        51.04434        -0.57166
C         28.15732        53.21317        -0.78571
C         26.88885        52.48766        -0.74382
C         28.13200        54.60006        -1.00978
C         26.91549        55.33708        -1.03238
C         26.87012        56.70356        -1.24323
C         29.37149        12.50783        -0.39626
C         30.77075        14.27955         0.67630
C         29.43232        13.66399         0.31374
C         30.76452        15.79691         0.70915
C         29.48984        16.49749         0.83296
C         30.69062        18.67435         0.59745
C         29.48936        17.86002         0.61145
C         30.65813        20.04954         0.53738
C         29.37690        20.79698         0.58313
C         30.64444        23.03917         0.85468
C         29.36367        22.28771         0.83879
C         30.60680        24.47256         1.00336
C         29.39835        25.17348         1.22217
C         30.67928        27.30529         1.49775
C         29.37547        26.60344         1.35471
C         30.72592        28.79570         1.59980
C         29.45086        29.55652         1.45756
C         30.78927        31.66858         1.90853
C         29.44581        30.98974         1.76941
C         30.71902        33.10915         1.47045
C         29.49146        33.81042         1.66046
C         30.69528        35.97596         1.14392
C         29.53947        35.29302         1.72967
C         30.54893        37.36065         0.57769
C         29.45118        38.21754         1.16258
C         30.74295        40.33699         0.79262
C         29.44125        39.57200         0.94247
C         30.62174        41.64078         0.07165
C         29.34774        42.13147        -0.13901
C         30.68776        44.70898         0.39790
C         29.35182        44.26280         0.00027
C         30.72684        46.22731         0.42843
C         29.43038        46.94487         0.37681
C         30.65237        48.96212        -0.29867
C         29.39913        48.27740         0.02539
C         30.60514        50.34511        -0.55370
C         29.38881        51.07766        -0.57230
C         29.36646        52.47351        -0.75119
C         31.92953        16.49444         0.59701
C         33.15577        18.75365         0.32569
C         31.99941        17.97201         0.91022
C         33.14718        20.12796         0.37884
C         31.90713        20.81772         0.91549
C         33.07666        23.00365         0.58131
C         31.85786        22.32242         0.69226
C         33.14648        24.43476         1.02062
C         31.85813        25.20493         0.94696
C         33.14261        27.32431         0.96825
C         31.91087        26.58498         1.10747
C         33.16694        28.75880         1.02157
C         31.98134        29.51869         1.30048
C         33.16340        31.63528         0.97396
C         31.97391        30.91060         1.31997
C         33.11882        33.05196         0.83930
C         31.89771        33.75139         1.03393
C         33.05850        35.88848         0.14084
C         31.80436        35.18151         0.65299
C         33.12884        37.37367         0.25041
C         31.88156        38.10189         0.55183
C         33.00014        40.22533        -0.45530
C         31.80185        39.51773         0.10357
C         33.01689        41.70678        -0.40036
C         31.82163        42.39366        -0.21407
C         33.11461        44.60202        -0.34467
C         31.95719        43.84050         0.27778
C         33.07020        46.02792        -0.42518
C         31.96180        46.85008        -0.09252
C         31.87336        48.22972        -0.37743
C         34.28266        20.93015         0.03954
C         35.48039        23.09518        -0.00821
C         34.28762        22.32085         0.22009
C         35.52410        24.47832         0.13323
C         34.33519        25.20546         0.52354
C         35.66454        27.29446         0.74588
C         34.33757        26.58525         0.64705
C         35.59080        28.74773         0.26910
C         34.36619        29.49195         0.75354
C         35.59860        31.59741         0.30741
C         34.36493        30.88668         0.69522
C         35.54096        32.98670         0.08180
C         34.42697        33.80474         0.65976
C         35.46807        35.91914        -0.30259
C         34.34487        35.20323         0.09124
C         35.48182        37.34701        -0.51126
C         34.30251        38.09815        -0.30322
C         35.47446        40.20644        -0.81172
C         34.27293        39.48179        -0.52369
C         35.42517        41.64648        -0.88750
C         34.26414        42.40190        -0.64197
C         34.23995        43.84555        -0.69501
C         36.72302        25.23015        -0.17147
C         37.96966        27.36137        -0.29807
C         36.80745        26.58370         0.05244
C         38.04823        28.72858        -0.13021
C         36.91292        29.47389         0.55318
C         38.12446        31.66293         0.09156
C         36.81702        30.91953         0.14787
C         37.99939        33.02752        -0.52616
C         36.69368        33.66340        -0.53171
C         37.93686        35.89332        -0.97080
C         36.66369        35.17586        -0.75216
C         37.89879        37.30181        -1.04342
C         36.69036        38.04107        -0.87585
C         36.66230        39.45900        -0.98366
C         39.19466        29.48139        -0.56523
C         40.38476        31.59849        -1.01878
C         39.24344        30.85585        -0.53548
C         40.35707        32.95561        -1.16206
C         39.13101        33.71746        -0.97019
C         39.09569        35.12645        -1.19311
O         17.47722        29.30772         0.19244
O         24.42508         8.38033        -0.92762
O         22.03338        21.46599         2.74976
O         12.21791        33.67701         2.52358
O         28.68365        29.34331         0.18767
O         21.65995        12.61618        -2.52256
O         21.76010        25.92925        -0.13972
O         22.16871         9.64097        -0.60523
O         32.08344        35.37683        -0.84210
O         21.12132        41.90876        -0.70917
O         22.77156         9.00699        -4.11892
O         24.72017        29.06028         2.97185
O         29.26557        43.25849        -0.95624
O         27.70057        16.10328         2.51719
O         16.91308        34.28483        -0.15978
O         15.09040        26.88603         3.16384
O         30.73947        45.43087         1.66810
O         27.59330        38.26388         2.80535
O         24.02359        33.88749         0.04557
O         23.70464        35.47782         3.19594
O         12.94984        41.17577         2.08121
O         29.08326        35.74381         3.08743
O         20.09254        50.44742        -2.43541
O         16.97564        47.08310        -1.90974
O         17.11040        17.99374        -2.13084
O         27.45600        46.70465         1.94309
O         27.51547        13.45600         1.88027
O         23.57449        20.46648        -0.35306
O         26.31908        44.16069        -1.03062
O         26.85944        21.72742        -0.68756
O         14.36185        22.87528        -0.40755
O         32.80060        37.83201         1.63542
O         29.25660        21.35510         2.02708
O         23.69602        59.35890         0.03894
O          8.82277        32.36410        -1.78839
O         17.24526        14.17988        -0.46213
O         13.61752        20.15201         1.80974
O         27.26200        17.92036        -0.50957
O         12.88675        28.21383         3.02654
O         27.24789        39.44709        -0.56290
O         19.62013        26.02524         3.06430
O         20.77504        17.99903         1.79164
O         31.91628        39.68131        -1.32716
O         17.64081        31.38464         3.11920
O         30.80594        27.97701         2.81548
O          8.53856        29.59206         1.72402
O         13.89244        37.68951        -0.71828
O         20.06258        17.97735        -1.70232
O         36.33886        34.26557        -1.85092
O         13.44943        44.68258         1.13103
O         25.11735        18.44298         2.38106
O         16.86293        21.18166         2.37298
O         20.64597        45.18651        -1.32336
O         24.95797        37.50363         0.18158
O         25.56581        54.77585         0.83906
H         25.63597        55.73363         1.04241
O         24.64930        52.11410        -2.71409
H         25.45103        51.55543        -2.80884
O         31.19627        40.62321         2.14965
H         31.72181        41.45705         2.13134
O         35.95085        27.26791         2.18614
H         36.01611        26.32645         2.45524
O         24.37771        25.42939        -0.69223
H         23.47581        25.77520        -0.91950
O         10.43737        30.40060        -1.32180
H         10.30760        31.10046        -2.00440
O         23.49358        28.90236        -0.45682
H         23.41301        29.83897        -0.77933
O         31.08068        31.70740         3.35601
H         30.35855        32.20909         3.79221
O         23.21522        37.98707         3.37736
H         23.48653        37.19287         3.89810
O         31.96584        20.71816         2.38596
H         31.07689        21.01286         2.70820
O         37.21400        29.52938         1.97883
H         36.97743        28.65177         2.37506
O         15.84549        33.55406         3.29512
H         15.16615        33.03398         3.77492
O         19.61995        42.75503         2.52437
H         18.75449        43.02803         2.89734
O         10.28163        27.40679         2.89086
H         11.04334        27.80426         3.37914
O         17.10555        38.11323        -0.99121
H         16.20860        38.28368        -1.35401
O         23.34033        31.55975        -0.59824
H         23.86349        32.32976        -0.93384
O         38.50818        31.88674         1.49811
H         38.30334        31.04847         1.98289
O         32.37274        43.55813         1.65920
H         32.12700        44.35146         2.19571
O         35.48320        28.71373        -1.17891
H         34.61803        28.31801        -1.41458
O         15.92752        42.00657         2.52393
H         15.09777        41.71770         2.96589
O         33.40356        24.32604         2.49164
H         33.21894        25.20764         2.88422
O         18.50824        20.10209        -1.61134
H         18.59867        19.50462        -2.38905
O         14.30760        35.01723        -0.65813
H         15.18520        34.67158        -0.95435
O         26.91357        26.76894        -0.49386
H         26.05471        26.39202        -0.81635
O         32.17027        18.01484         2.36419
H         32.18415        18.97545         2.62360
O         34.88634        34.05404         2.05733
H         34.89976        33.19068         2.52569
O         16.75367        42.11647        -1.03596
H         17.54167        42.43408        -1.52669
O         22.59150        14.16194         1.67594
H         22.75365        13.20670         1.85531
O         20.55842        52.93619        -3.12282
H         20.52516        51.96766        -3.32089
O         19.53668        59.49344        -1.13726
H         19.78961        59.50081        -0.19139
O         23.81144        16.10929        -1.16938
H         23.82352        17.06518        -1.38796
O         13.20095        36.29559         2.61011
H         12.91219        35.44006         3.01375
O         28.15163        24.14270         2.98730
H         28.72975        23.36256         3.13420
O         31.80793        13.79982        -0.17827
H         31.66398        14.16169        -1.07617
O         27.28232        29.40993         3.53521
H         26.42271        29.49993         4.00715
O         27.15542        42.79870         2.26760
H         27.27226        41.94649         2.73995
O         19.68942        52.57458         0.45734
H         19.60799        53.52434         0.68787
O         30.12250        37.19460        -0.81085
H         30.75794        36.56797        -1.24256
O         24.13327        11.65001         1.33324
H         24.96838        11.68267         1.84695
O         12.36289        25.74251        -0.82764
H         12.59771        24.90852        -1.28945
O         19.50633        47.09359         1.56140
H         18.77756        47.70637         1.79476
O         17.74192        11.62008        -0.26378
H         17.51606        12.47489         0.17358
O         24.27960        48.57426         1.87701
H         25.09475        48.22558         2.29886
H          5.15319        31.12059        -1.18218
H          5.12248        33.56493        -1.22014
H          7.54751        26.86648        -0.11169
H          6.20862        29.05138        -0.37276
H          6.24739        35.75299        -0.72758
H          7.42028        37.89859        -0.50351
H          9.89415        22.67191         0.40655
H          8.67416        24.76313         0.32200
H          8.62064        40.10874        -0.30095
H          9.86396        42.21362        -0.41292
H         12.36920        18.55736        -0.79375
H         11.08689        20.60831        -0.04018
H         11.08314        44.03618        -1.14853
H         12.54989        46.45586        -1.56097
H         14.66983        14.73121        -2.48027
H         13.61760        16.60121        -1.60732
H         13.56308        48.61482        -0.99419
H         14.78104        50.81900        -0.94798
H         17.20421        10.01864        -2.51311
H         16.42826        12.41244        -3.21428
H         16.03011        52.91540        -1.39859
H         17.28593        55.08629        -1.59498
H         19.96152         6.04257        -3.94374
H         18.56705         7.90113        -3.07089
H         18.52055        57.21798        -1.71483
H         20.33328        59.00961        -2.96552
H         23.51802         3.13621        -5.27372
H         21.30612         4.16969        -4.81331
H         23.21677        62.74166        -2.07516
H         21.05778        61.53033        -2.05639
H         25.62858         4.33762        -4.74469
H         26.79506         6.38659        -3.95111
H         26.61679        59.33729        -1.50686
H         25.36463        61.55395        -1.80190
H         27.96653         8.37042        -2.85990
H         29.09407        10.22571        -1.78986
H         29.07751        55.13324        -1.19359
H         27.80608        57.26226        -1.39897
H         30.30765        12.06162        -0.76596
H         31.02129        13.92055         1.71346
H         31.54622        50.88450        -0.74076
H         30.32040        53.01270        -0.85527
H         32.87257        15.93902         0.47497
H         34.06600        18.22230         0.00570
H         33.95335        46.53117        -0.85130
H         32.77216        48.75874        -0.73002
H         35.20070        20.42704        -0.30056
H         36.39179        22.56238        -0.31964
H         36.36284        42.17868        -1.11102
H         35.15330        44.36634        -1.02411
H         37.57688        24.69426        -0.61408
H         38.81260        26.83188        -0.77102
H         38.82872        37.84873        -1.26167
H         37.60026        39.98768        -1.21220
H         40.04676        28.92333        -0.98733
H         41.29237        31.03740        -1.28948
H         41.25001        33.48962        -1.51865
H         40.03129        35.63843        -1.46399
