         404
 CSIRO Nanostructure Databank - Neutral Graphene Oxide Data Set
C          1.44847         3.14853        -0.23628
C          0.17852         3.80997        -0.19586
C          1.22370         6.04032        -0.26978
C          0.03264         5.16908        -0.17428
C          1.17047         7.55772        -0.26094
C         -0.09712         8.32821        -0.19106
C          1.11189        10.46439         0.37677
C         -0.11650         9.65693         0.00436
C          0.99710        11.95589         0.13747
C         -0.14829        12.67392         0.30797
C          0.98183        14.86633         0.35910
C         -0.16893        14.11811         0.27577
C          1.02592        16.31944         0.46055
C         -0.16761        17.06733         0.37024
C          1.01710        19.17372         0.66112
C         -0.17749        18.45103         0.44527
C          1.02265        20.63379         0.77252
C         -0.17760        21.37230         0.73316
C          1.02270        23.50493         0.80324
C         -0.17557        22.75976         0.73333
C          1.00849        24.93749         0.63993
C         -0.09281        25.62947         0.11669
C          1.10097        27.77843         0.15322
C         -0.07005        27.01345        -0.05092
C          1.10582        29.20905        -0.10622
C         -0.03804        29.96522        -0.30039
C          1.13663        32.12751        -0.42925
C         -0.02844        31.38132        -0.45797
C          1.20566        33.57844        -0.58190
C          0.03779        34.34351        -0.80483
C          1.33633        36.36371        -1.22727
C          0.09835        35.69637        -1.11682
C          1.41954        37.74188        -1.62015
C          3.92286         3.25677        -0.02949
C          2.63949         3.86357        -0.16439
C          3.77736         6.14923        -0.03554
C          2.52673         5.34031         0.01620
C          3.72913         7.66402        -0.04851
C          2.41670         8.36377         0.01418
C          3.58082        10.54754        -0.26733
C          2.39098         9.84258        -0.16282
C          3.55416        12.02960        -0.32026
C          2.24608        12.72021        -0.11628
C          3.56578        14.84602         0.47814
C          2.26140        14.11872         0.41563
C          3.54070        16.32462         0.57775
C          2.26127        17.02067         0.64188
C          3.45521        19.17765         1.08710
C          2.22185        18.43898         0.77386
C          3.48728        20.64893         0.96301
C          2.24882        21.35529         0.88872
C          3.50779        23.47696         1.03518
C          2.26170        22.78962         0.93750
C          3.53412        24.93445         1.22870
C          2.18986        25.72230         0.99834
C          3.55366        27.79549         0.65163
C          2.29131        27.12691         0.58974
C          3.62600        29.17871         0.32011
C          2.41449        29.87838        -0.18264
C          3.63406        32.13441         0.03259
C          2.40824        31.38455        -0.35834
C          3.70071        33.56661        -0.35671
C          2.46846        34.25243        -0.61732
C          3.79480        36.30971        -1.02953
C          2.53687        35.64163        -0.94976
C          3.85830        37.66924        -1.48226
C          2.62914        38.36352        -1.76416
C          6.40803         3.41682         0.14311
C          5.12886         3.99077        -0.00320
C          6.27434         6.24247        -0.56360
C          5.03869         5.43030        -0.37893
C          6.20827         7.74148        -0.72268
C          4.89370         8.44901        -0.55613
C          6.07080        10.64315        -0.53867
C          4.86866         9.91618        -0.40898
C          6.06148        12.08532        -0.40238
C          4.83268        12.77521        -0.17676
C          6.02841        14.90362         0.02442
C          4.81690        14.15491         0.06516
C          6.00836        16.30657         0.32135
C          4.75646        16.99015         0.60802
C          5.98010        19.21924         0.76201
C          4.77313        18.41938         0.98874
C          5.95243        20.59458         0.82919
C          4.71160        21.33527         0.94327
C          5.97999        23.50905         1.01619
C          4.73556        22.77885         0.96746
C          6.00161        24.94043         1.04493
C          4.78487        25.67310         1.05517
C          6.04090        27.78539         0.86787
C          4.78579        27.08660         0.90747
C          6.07376        29.18215         0.63425
C          4.84997        29.85500         0.35794
C          6.16749        31.97271        -0.05266
C          4.86729        31.33331         0.26260
C          6.17876        33.44553        -0.30080
C          4.91941        34.22974        -0.36059
C          6.25080        36.29777        -0.76600
C          5.00538        35.62858        -0.69103
C          6.32166        37.60986        -1.34571
C          5.10312        38.27283        -1.68164
C          8.88230         3.65099         0.37343
C          7.61566         4.17926         0.13070
C          8.75921         6.50337        -0.09211
C          7.52024         5.65218        -0.01367
C          8.68347         7.90281        -0.55500
C          7.43859         8.54863        -0.64309
C          8.56283        10.71484        -0.77158
C          7.34675         9.96727        -0.68324
C          8.52742        12.14068        -0.68471
C          7.28026        12.81778        -0.45498
C          8.47661        14.98562        -0.33239
C          7.26054        14.23772        -0.26544
C          8.43392        16.38213        -0.07645
C          7.22785        17.01812         0.30604
C          8.51902        19.20725         0.66147
C          7.24404        18.44914         0.70149
C          8.49701        20.67763         0.46130
C          7.18851        21.38389         0.59329
C          8.45606        23.47758         1.04217
C          7.21929        22.81773         0.92487
C          8.47648        24.91496         1.19376
C          7.25003        25.64119         1.09215
C          8.52064        27.75730         1.12612
C          7.27991        27.06706         1.05629
C          8.57518        29.18333         0.90965
C          7.34234        29.89978         0.62574
C          8.64422        31.98333         0.24784
C          7.39800        31.26126         0.33462
C          8.68531        33.35035         0.01865
C          7.45252        34.15732        -0.01185
C          8.81854        36.29699        -0.46399
C          7.48170        35.64192        -0.26526
C          8.83847        37.65853        -1.21374
C          7.55937        38.21401        -1.64305
C         11.34858         3.85098         0.54206
C         10.09037         4.43564         0.30346
C         11.21186         6.54861        -0.37991
C         10.04840         5.82226        -0.05979
C         11.15000         7.94165        -0.78956
C          9.88563         8.62275        -0.77083
C         11.03345        10.76563        -1.12457
C          9.81762        10.03740        -0.92563
C         10.98451        12.19463        -1.00284
C          9.74765        12.87225        -0.75473
C         10.95719        14.99338        -0.53572
C          9.73033        14.29958        -0.57677
C         10.99124        16.45776        -0.44786
C          9.66808        17.17966        -0.24574
C         10.96106        19.22528         0.37675
C          9.75840        18.54677         0.24896
C         10.99560        20.65609         0.66316
C          9.76562        21.39919         0.66906
C         10.96844        23.51830         1.00250
C          9.70834        22.76733         0.90462
C         10.91440        24.82423         1.75773
C          9.68854        25.60942         1.38339
C         11.00713        27.68272         1.39099
C          9.74561        27.02498         1.32590
C         11.07464        29.18390         1.33753
C          9.80355        29.84740         0.85414
C         11.08927        31.81156         0.08678
C          9.88169        31.22282         0.42465
C         11.09299        33.18687        -0.53625
C         10.01574        34.07231         0.08779
C         11.22928        36.01375        -0.94085
C         10.02839        35.46284        -0.53067
C         11.27708        37.33925        -1.55480
C         10.09936        38.03873        -1.82562
C         13.81793         4.02022         0.63249
C         12.54813         4.58142         0.34756
C         13.65294         6.59264        -0.57608
C         12.47236         5.91268        -0.19162
C         13.55617         7.85827        -1.26089
C         12.31780         8.63207        -1.21540
C         13.43403        10.88429        -1.66715
C         12.26075        10.06800        -1.39525
C         13.40494        12.28824        -1.39472
C         12.20530        12.93967        -1.04929
C         13.41063        15.07739        -0.56840
C         12.20077        14.34278        -0.72693
C         13.44469        16.38426        -0.02669
C         12.21458        17.13013         0.02030
C         13.38196        19.10786         0.94907
C         12.18891        18.47739         0.36101
C         13.44229        20.57472         1.05837
C         12.22530        21.29817         0.88639
C         13.48667        23.36378         1.60534
C         12.27961        22.75961         1.00405
C         13.42404        24.79860         1.96524
C         12.21275        25.57250         1.65910
C         13.54086        27.64298         1.44932
C         12.23916        26.95808         1.53427
C         13.59010        28.96719         0.93269
C         12.30345        29.61563         0.55498
C         13.61428        31.66653        -0.30100
C         12.30504        30.98794        -0.04024
C         13.63293        33.14135        -0.41683
C         12.44065        33.87122        -0.52514
C         13.71676        35.87540        -1.09107
C         12.46971        35.25019        -0.83874
C         13.74553        37.20368        -1.68152
C         12.53320        37.86379        -1.96053
C         16.29863         4.18489         0.61373
C         15.00886         4.70942         0.32045
C         16.10161         6.61281        -0.80523
C         14.91631         5.97549        -0.35818
C         15.99433         7.72551        -1.69408
C         14.69991         8.24501        -1.97219
C         15.88072        11.08347        -2.19894
C         14.61806        10.40827        -2.28358
C         15.91762        12.40895        -1.70485
C         14.62758        13.08325        -1.58006
C         15.94890        15.10162        -0.67068
C         14.66021        14.52741        -1.08662
C         15.91669        16.32463         0.05141
C         14.69991        16.99011         0.29829
C         15.91475        19.12786         1.00368
C         14.68712        18.32415         0.93998
C         15.89582        20.47906         1.32171
C         14.65157        21.22318         1.36589
C         15.91665        23.27576         2.27258
C         14.65425        22.64128         1.69509
C         16.00504        24.78877         2.05281
C         14.74513        25.54593         2.09811
C         16.01832        27.61671         1.59280
C         14.75104        26.96820         1.72352
C         16.03535        28.97731         1.13327
C         14.82074        29.61108         0.74152
C         16.10504        31.77127         0.28408
C         14.88855        30.95231         0.10113
C         16.09601        33.11828        -0.08330
C         14.88775        33.81181        -0.45460
C         16.19489        35.88084        -0.96046
C         14.92386        35.18784        -0.82267
C         16.21488        37.16535        -1.65513
C         14.98216        37.77074        -2.02863
C         18.77968         4.36176         0.56678
C         17.47428         4.86399         0.24977
C         18.55929         6.79852        -0.88199
C         17.38528         6.09235        -0.48971
C         18.46067         8.01338        -1.65194
C         17.19319         8.31239        -2.17757
C         18.36443        11.04621        -2.18672
C         17.11729        10.46550        -2.51566
C         18.35509        12.44232        -1.87456
C         17.14059        13.11599        -1.59545
C         18.41948        15.07966        -0.75376
C         17.16171        14.45569        -1.01932
C         18.52428        16.23417         0.23142
C         17.18608        16.91794         0.54594
C         18.42617        19.15014         0.87884
C         17.17625        18.37348         0.92400
C         18.39306        20.47345         1.29890
C         17.15882        21.19373         1.51732
C         18.42290        23.25639         2.02317
C         17.17449        22.54903         1.83746
C         18.41683        24.64560         2.37147
C         17.20820        25.47810         2.17296
C         18.43447        27.73520         2.00862
C         17.23161        26.93397         1.97681
C         18.47587        29.04734         1.41476
C         17.27615        29.69735         1.01940
C         18.55475        31.77667         0.62608
C         17.30838        31.09013         0.67672
C         18.59835        33.25251         0.49710
C         17.31333        33.93809         0.09360
C         18.65676        35.97513        -0.59528
C         17.36162        35.28309        -0.51687
C         18.68511        37.29332        -1.45016
C         17.42512        37.74923        -2.01688
C         19.91230         5.04091         0.18263
C         20.98808         6.97348        -0.98637
C         19.83412         6.26902        -0.54223
C         20.88978         8.20403        -1.59844
C         19.63436         8.85041        -1.86395
C         20.80105        11.04593        -1.91841
C         19.59152        10.26380        -2.10641
C         20.83264        12.39827        -1.83173
C         19.61466        13.25399        -2.04485
C         20.79457        15.33674        -1.19681
C         19.60868        14.55157        -1.25785
C         20.79436        16.63420        -0.71482
C         19.64640        17.21427        -0.10424
C         20.74496        19.45859         0.11613
C         19.62535        18.54824         0.33952
C         20.77593        20.68793         0.67546
C         19.71463        21.08079         1.67880
C         20.83364        23.14267         2.45667
C         19.65317        22.55129         1.99430
C         20.79240        24.41500         3.01969
C         19.58729        25.12293         2.98340
C         20.83767        28.03118         2.57637
C         19.61198        27.36773         2.71006
C         20.91696        29.16473         1.78217
C         19.72889        29.72860         1.26189
C         20.99137        31.69250         0.30979
C         19.75524        31.06155         0.73710
C         21.06605        33.00631         0.01793
C         19.96366        33.96416         0.39392
C         21.07969        35.79610        -0.93442
C         19.92534        35.22797        -0.46920
C         21.09516        36.97120        -1.76506
C         19.95866        37.64433        -2.08188
O         17.77215        33.91715         1.51397
O          7.34575        35.10493         1.11301
O          4.14004        18.68186         2.28750
O         13.86115        18.40596         2.14949
O         14.42291        30.98168        -1.30427
O         14.52987        14.21318        -2.52117
O          2.65166        30.50493        -1.50668
O         11.79361        23.50720        -0.19114
O         12.09329        29.77601        -0.87401
O          2.71406        25.42309         2.32870
O          3.23465         5.69021         1.24898
O         13.96176        25.15564         3.30596
O         14.56728         9.21101        -2.99289
O          5.37149         8.07064        -1.88640
O          1.29394         6.81494        -1.53063
O         19.56079        26.35149         3.66044
O          2.96318        14.22625         1.69780
O         17.15718        17.28894         1.96856
O         18.69183        37.29396         0.01671
O          8.02733        18.71067         1.95831
O         10.29211        17.07514        -1.58107
O          2.76892        12.55735        -1.47910
O          3.19659         8.10867         1.24755
O          8.95533        37.52669         0.27249
O          4.12782        31.92781         1.40633
O          5.64790         5.59064        -1.70817
O         17.10661         9.25727        -3.21898
O          7.97665         6.35583         1.17833
O          7.77102        21.09088        -0.74698
O          6.26888        32.50809        -1.43146
O         15.83572        23.11037         3.72316
H         15.10614        23.70303         4.02782
O          1.24378        10.34873         1.83661
H          1.73317         9.52116         2.04181
O         20.10772        20.44172         2.94506
H         20.03744        19.47112         2.81868
O         10.32966        34.24692         1.49341
H          9.59578        34.76267         1.89552
O         10.72007        33.01224        -1.93410
H         11.28193        32.30334        -2.31381
O         19.62960        13.66097        -3.46397
H         19.65126        12.84134        -4.00248
O         10.76828        24.42876         3.16681
H         10.91115        25.22426         3.72197
O         11.31154        29.67377         2.70393
H         10.53589        29.42790         3.25086
O         20.29789        34.42094         1.73091
H         19.45205        34.71285         2.14480
O         18.96101        15.57930         1.46408
H         18.57789        16.10823         2.20519
H          1.47164         2.05084        -0.28888
H         -0.72286         3.17994        -0.18035
H         -0.96921         5.62037        -0.17301
H         -1.03162         7.79223        -0.41540
H         -1.08734        10.17510         0.00400
H         -1.10497        12.16335         0.49040
H         -1.15486        14.60340         0.27360
H         -1.12289        16.54706         0.21972
H         -1.13755        18.97403         0.34776
H         -1.14460        20.85526         0.68235
H         -1.13904        23.28470         0.68352
H         -1.00634        25.08390        -0.15638
H         -0.97689        27.50653        -0.42487
H         -1.02185        29.47557        -0.27915
H         -1.00217        31.88085        -0.55929
H         -0.94635        33.85730        -0.75924
H         -0.83090        36.25329        -1.30521
H          0.48710        38.28655        -1.82887
H          3.97022         2.16007         0.05625
H          2.68037        39.41168        -2.09299
H          6.48319         2.33300         0.32026
H          5.15192        39.29412        -2.08734
H          8.98485         2.57433         0.57596
H          7.56931        39.13133        -2.25009
H         11.40555         2.80360         0.87328
H         10.12677        38.91665        -2.48776
H         13.87325         3.02239         1.09220
H         12.56280        38.85189        -2.44355
H         16.37458         3.22649         1.14873
H         15.00465        38.74206        -2.54462
H         18.86392         3.41764         1.12415
H         17.43304        38.59668        -2.71892
H         20.90542         4.63809         0.43017
H         21.98146         6.53918        -0.80154
H         21.82690         8.70053        -1.88136
H         21.75529        10.51924        -1.78619
H         21.80139        12.89468        -1.67571
H         21.71678        14.94616        -1.64920
H         21.71198        17.22842        -0.82590
H         21.56236        19.14674        -0.54895
H         21.62650        21.36148         0.49271
H         21.76414        22.55960         2.47218
H         21.67167        24.85641         3.50517
H         21.71324        27.65950         3.12354
H         21.87363        29.69159         1.67351
H         21.86493        31.04978         0.12611
H         22.01533        33.41619        -0.35378
H         22.04530        35.30187        -0.76019
H         22.05274        37.26932        -2.21498
H         19.96807        38.44630        -2.83464
