         598
 CSIRO Nanostructure Databank - Neutral Graphene Oxide Data Set
C         22.91351        70.03006         0.66053
C         22.89018        71.45343         0.75525
C         21.71492        72.15951         1.12787
C         22.89704        74.27573         0.96739
C         21.72979        73.55093         1.21451
C         25.27879        65.67696         0.27039
C         25.30756        67.19094         0.15653
C         24.13801        67.88421         0.38307
C         25.30889        70.02631         0.12263
C         24.10095        69.31860         0.38646
C         25.24883        71.48659        -0.01857
C         24.06283        72.19987         0.45310
C         25.33221        74.33233         0.48289
C         24.09530        73.61270         0.59307
C         27.75366        61.45678        -0.47549
C         27.72273        62.81820        -0.61186
C         26.53334        63.60057        -0.30262
C         27.69022        65.77469        -0.63848
C         26.50769        64.96280        -0.25986
C         27.75576        67.20603        -0.25485
C         26.54221        67.90621        -0.03493
C         27.78546        70.05593        -0.11295
C         26.53531        69.34093        -0.03204
C         27.82002        71.50662        -0.02209
C         26.56339        72.26712        -0.11275
C         27.80349        74.36388         0.38393
C         26.55769        73.69582         0.27028
C         30.31398        57.10855        -0.68777
C         30.26312        58.53888        -0.82212
C         29.08172        59.21692        -0.57577
C         30.30763        61.41377        -0.68261
C         29.02258        60.68299        -0.45875
C         30.24312        62.84136        -1.11701
C         28.93813        63.55830        -1.06090
C         30.25573        65.74210        -0.73524
C         28.96178        65.06157        -0.99891
C         30.25760        67.15977        -0.42452
C         28.98734        67.89251        -0.29159
C         30.26790        70.03456        -0.11828
C         28.98060        69.31248        -0.15611
C         30.28159        71.51898         0.06056
C         28.99599        72.22605         0.14116
C         30.27815        74.35919         0.33110
C         29.02979        73.67057         0.28796
C         32.77810        52.86032        -0.51003
C         32.74389        54.24434        -0.79758
C         31.53999        54.98564        -0.69723
C         32.56462        57.03922        -1.75167
C         31.45921        56.36861        -0.96748
C         32.66065        58.53564        -1.47816
C         31.52055        59.24306        -1.14142
C         32.69791        61.43337        -1.22311
C         31.54420        60.68841        -1.05806
C         32.71254        62.87893        -1.06964
C         31.50823        63.60156        -1.02575
C         32.72592        65.65972        -0.43521
C         31.44615        65.01214        -0.78630
C         32.74356        67.11496        -0.08585
C         31.45833        67.82109        -0.18203
C         32.77184        69.94831         0.49930
C         31.47271        69.23300         0.23603
C         32.78067        71.45250         0.66563
C         31.48940        72.23030         0.57837
C         32.77504        74.33878         0.52603
C         31.53027        73.70113         0.41363
C         35.28467        48.65648         0.24085
C         35.25244        50.05596        -0.00945
C         34.03718        50.75195        -0.17766
C         35.23209        52.87176        -0.61026
C         33.99264        52.14190        -0.45814
C         35.20373        54.27014        -0.96955
C         33.97477        54.91918        -1.14799
C         35.22432        57.09025        -1.71196
C         33.90565        56.29050        -1.68906
C         35.20028        58.53373        -1.62353
C         33.92647        59.25271        -1.76512
C         35.24113        61.44922        -1.27410
C         33.95953        60.76246        -1.58596
C         35.19755        62.86824        -1.08723
C         33.98256        63.55135        -1.04237
C         35.25004        65.81192        -0.86847
C         33.97136        65.02756        -0.96297
C         35.23327        67.20768        -0.38519
C         34.02409        67.87584        -0.13054
C         35.24826        69.98216         0.13118
C         34.03636        69.26201         0.14957
C         35.22742        71.46913         0.14193
C         34.01019        72.20783         0.43400
C         35.27663        74.30652         0.71484
C         34.02163        73.61951         0.54210
C         37.73500        44.42693         0.90840
C         37.74283        45.80573         0.80980
C         36.53035        46.56248         0.67693
C         37.73712        48.74560         0.54790
C         36.48341        47.95297         0.49260
C         37.72994        50.14335         0.07725
C         36.49448        50.80653        -0.09490
C         37.68607        52.99107        -0.28110
C         36.44471        52.20354        -0.37550
C         37.69429        54.35539        -0.82634
C         36.46147        54.99969        -1.10815
C         37.69020        57.10466        -1.46116
C         36.46963        56.38411        -1.37317
C         37.70716        58.55173        -1.46063
C         36.41119        59.22395        -1.05486
C         37.70231        61.38020        -1.13820
C         36.43749        60.72400        -1.23132
C         37.73726        62.82139        -0.83783
C         36.45674        63.59981        -0.80451
C         37.71965        65.76474        -0.66685
C         36.51779        65.07455        -0.83787
C         37.70319        67.16506        -0.40889
C         36.47793        67.88092        -0.23678
C         37.72643        69.95820         0.33493
C         36.47629        69.29006         0.02477
C         37.66329        71.36732         0.81857
C         36.53343        72.22095         0.37052
C         37.73546        74.26629         1.17038
C         36.50368        73.63865         0.79964
C         40.23260        40.06079         1.61518
C         40.25073        41.56878         1.41772
C         39.05676        42.21871         1.24750
C         40.27978        44.31847         0.55632
C         38.96525        43.61432         0.77959
C         40.33943        45.81522         0.67419
C         39.04639        46.53760         0.84565
C         40.28362        48.65829         0.10348
C         39.05889        48.01884         0.63927
C         40.20233        50.09150        -0.04851
C         38.99079        50.79872        -0.01937
C         40.24441        53.00037        -0.45675
C         39.00826        52.28293        -0.06825
C         40.19417        54.32739        -0.89856
C         38.92375        55.01977        -1.03920
C         40.13692        57.05143        -1.81316
C         38.89951        56.37734        -1.44157
C         40.16469        58.58616        -1.81451
C         38.89758        59.26974        -1.48726
C         40.18868        61.39895        -1.09805
C         38.92419        60.69876        -1.25196
C         40.27264        62.78316        -0.95609
C         39.01482        63.55649        -1.07948
C         40.30844        65.66455        -0.54434
C         39.01352        65.04770        -0.90824
C         40.27416        67.13030        -0.28840
C         38.97291        67.90127        -0.27432
C         40.14343        69.87071         0.86514
C         38.91352        69.26524         0.31637
C         40.15529        71.30003         1.31684
C         38.88867        72.08163         1.30357
C         40.19529        74.16210         1.63549
C         38.95096        73.56352         1.32705
C         42.90038        35.87796         2.21703
C         42.84188        37.30851         2.21543
C         41.63697        37.98605         2.13210
C         42.78882        40.27358         2.18327
C         41.51427        39.45491         2.16660
C         42.78538        41.64213         1.62070
C         41.51701        42.29157         1.33031
C         42.73133        44.42366         0.85717
C         41.50774        43.62416         0.95721
C         42.69172        45.67714         0.04785
C         41.55626        46.50370         0.12269
C         42.59433        48.75788        -0.76438
C         41.46042        47.91741        -0.16397
C         42.72264        50.09932        -0.06631
C         41.46068        50.87432         0.02959
C         42.67175        52.91576        -0.77487
C         41.48634        52.30972        -0.34007
C         42.67718        54.28136        -1.24413
C         41.42158        55.01675        -1.25146
C         42.62703        57.09298        -1.96944
C         41.39932        56.33774        -1.66382
C         42.65351        58.53723        -1.61939
C         41.46243        59.22297        -1.49721
C         42.76657        61.36697        -0.98496
C         41.43027        60.60865        -1.00021
C         42.74065        62.83921        -1.05489
C         41.52948        63.51294        -0.88208
C         42.79500        65.66028        -0.37317
C         41.49182        64.96009        -0.61705
C         42.80548        67.11131        -0.01077
C         41.49472        67.76472         0.28942
C         42.59912        70.12856         0.26709
C         41.47463        69.19062         0.66967
C         42.61530        71.35030         1.17315
C         41.44589        72.02145         1.40172
C         42.66293        74.07768         1.95957
C         41.42864        73.44154         1.74891
C         45.51280        33.20453         2.76836
C         44.30300        33.79513         2.37438
C         45.27902        35.97443         1.78035
C         44.12659        35.19026         2.12016
C         45.38475        37.35522         1.97056
C         44.12475        38.05823         2.33285
C         45.32470        40.24696         1.78575
C         44.10891        39.56238         2.26944
C         45.27186        41.58487         1.46992
C         43.99157        42.27387         1.38481
C         45.24874        44.13334         0.20443
C         44.04131        43.69838         1.01221
C         45.20106        45.58692        -0.18650
C         43.94706        46.00335        -0.57821
C         45.18062        48.58991        -0.60013
C         43.94567        48.12615        -0.94499
C         45.27969        50.06932        -0.38922
C         44.00595        50.83796        -0.28122
C         44.96000        52.65077        -1.63501
C         43.90915        52.18796        -0.86533
C         45.07407        54.08461        -1.97609
C         43.85463        54.86919        -1.68112
C         45.15552        56.99425        -1.52646
C         43.90705        56.31328        -1.98253
C         45.17998        58.46977        -1.47763
C         43.94396        59.19860        -1.45347
C         45.23424        61.27688        -1.36093
C         43.98485        60.59666        -1.30589
C         45.25276        62.69191        -1.52541
C         44.07144        63.52711        -1.10086
C         45.27206        65.96196        -0.90623
C         44.09835        65.01865        -0.80887
C         45.24642        67.24979        -0.35407
C         43.93892        67.99211        -0.50893
C         45.14762        69.88037         0.87829
C         44.01260        69.50436        -0.06837
C         45.12079        71.13012         1.45479
C         43.85091        71.84827         1.85093
C         45.12590        73.98020         2.12451
C         43.91374        73.36427         1.93723
C         46.77308        33.81067         2.91798
C         48.01523        36.04093         2.66059
C         47.10146        35.05023         2.30985
C         47.89896        37.40964         2.21119
C         46.62797        38.03043         1.93275
C         47.81945        40.27576         1.89750
C         46.60286        39.48399         1.52120
C         47.73484        41.72571         1.82005
C         46.50716        42.35102         1.30163
C         47.75851        44.38847         0.60170
C         46.53330        43.63204         0.79441
C         47.73029        45.70096        -0.05987
C         46.46169        46.25880        -0.72628
C         47.61713        48.51303        -0.83923
C         46.43519        47.82208        -0.72125
C         47.72336        50.03688        -0.94474
C         46.36239        50.63877        -1.22719
C         47.90612        52.80837        -2.36101
C         46.04850        51.75661        -1.93874
C         47.78562        54.11322        -1.97391
C         46.45529        54.80417        -2.06009
C         47.71259        56.97388        -1.44325
C         46.44492        56.21978        -1.54637
C         47.66029        58.34738        -1.23795
C         46.42310        59.10932        -1.30901
C         47.68952        61.26042        -1.14907
C         46.46372        60.54643        -1.30772
C         47.72496        62.64436        -1.32272
C         46.51205        63.25891        -1.70506
C         47.73072        65.87262        -0.63612
C         46.54803        65.45444        -1.22715
C         47.68389        67.12822         0.03451
C         46.45199        67.86465         0.09117
C         47.60066        69.64616         1.31093
C         46.40784        69.13854         0.76295
C         47.61361        70.96865         1.97889
C         46.32845        71.74880         2.03395
C         47.65496        73.82370         2.51101
C         46.42661        73.26000         1.86273
C         49.06359        38.21900         2.26346
C         50.27951        40.38927         1.98535
C         49.05616        39.63640         2.08329
C         50.30757        41.74673         1.64852
C         49.04174        42.51463         1.67187
C         50.24701        44.54238         0.88534
C         48.96603        43.82626         1.00559
C         50.21230        45.92302         0.28826
C         48.89817        46.40784        -0.19803
C         50.20239        48.50421        -0.92481
C         48.90164        47.83189        -0.58488
C         50.18027        49.87912        -1.51216
C         48.97260        50.54050        -1.70952
C         50.34933        52.71998        -1.89010
C         49.08023        51.93902        -2.18535
C         50.25738        54.15536        -1.58363
C         49.00361        54.84222        -1.61225
C         50.19272        56.95056        -1.22324
C         48.96077        56.24449        -1.41427
C         50.19916        58.35967        -1.05112
C         48.91346        59.04884        -0.88097
C         50.22745        61.28164        -0.92197
C         48.93746        60.55821        -0.80028
C         50.19764        62.72204        -0.79903
C         48.88429        63.43367        -0.76715
C         50.18156        65.57622        -0.07860
C         48.88827        64.93739        -0.44751
C         50.15835        66.96006         0.39284
C         48.90747        67.71558         0.48046
C         50.09253        69.72828         1.34790
C         48.84596        68.99516         1.06389
C         50.08586        70.85621         2.36579
C         48.86489        71.70140         2.18161
C         50.12161        73.71441         2.78289
C         48.86152        73.09048         2.50616
C         51.50148        42.41844         1.27379
C         52.68987        44.43617         0.50099
C         51.51806        43.77459         0.88321
C         52.71088        45.74194        -0.09976
C         51.45635        46.47401        -0.31667
C         52.67928        48.28614        -1.51025
C         51.43281        47.66863        -0.98951
C         52.70502        49.80081        -1.56042
C         51.44736        50.57107        -1.51127
C         52.73829        52.68009        -1.21529
C         51.52290        51.96258        -1.46957
C         52.72653        54.08963        -1.09824
C         51.46480        54.81177        -1.23664
C         52.62607        56.95528        -0.93735
C         51.41872        56.23217        -1.12491
C         52.63072        58.37047        -0.99539
C         51.41048        59.08977        -0.98879
C         52.69394        61.24823        -0.80815
C         51.42405        60.55148        -0.92132
C         52.66419        62.72388        -0.70002
C         51.36783        63.42723        -0.54039
C         52.55662        65.30690         0.59355
C         51.34905        64.80816        -0.10746
C         52.49948        66.70862         1.14130
C         51.32913        67.54602         0.87074
C         52.52767        69.48107         2.03118
C         51.40024        68.97469         1.22756
C         52.61174        70.89704         2.37797
C         51.39477        71.61124         2.42098
C         52.57936        73.73090         2.70682
C         51.35586        73.02342         2.66244
C         53.90500        46.29657        -0.51377
C         55.17621        48.36419        -1.11385
C         53.98693        47.49448        -1.41905
C         55.17696        49.76080        -1.15191
C         53.96109        50.52717        -1.29834
C         55.19684        52.64074        -0.93731
C         53.96544        51.92194        -1.12287
C         55.21403        54.04570        -0.69443
C         53.94186        54.80648        -0.74878
C         54.86898        57.07131        -0.12229
C         53.82303        56.21268        -0.61700
C         55.04334        58.37533        -0.46887
C         53.93795        59.10522        -1.17643
C         55.15349        61.21246        -0.37308
C         53.90442        60.56535        -0.75387
C         55.16497        62.59308        -0.06264
C         53.96775        63.41522        -0.28385
C         55.05055        65.29208         0.91968
C         53.89292        64.70787         0.41801
C         55.06743        66.62669         1.67706
C         53.72153        67.33642         1.64121
C         55.40596        69.62506         2.39402
C         53.53570        68.54062         2.31101
C         55.17641        71.06420         2.35366
C         53.86628        71.63430         2.49693
C         55.00063        73.86931         2.37768
C         53.82200        73.07670         2.54637
C         56.39973        50.48746        -1.05926
C         57.67568        52.57480        -1.10316
C         56.42482        51.88696        -1.02008
C         57.72664        53.94131        -0.94045
C         56.52464        54.63688        -0.58249
C         57.80272        56.78286        -0.48040
C         56.74124        55.96820        -0.12224
C         57.67960        58.26480        -0.53389
C         56.37701        59.02774        -0.51872
C         57.60425        61.13663         0.04355
C         56.38223        60.48537        -0.25499
C         57.57855        62.51755         0.36610
C         56.35470        63.24631         0.36140
C         57.54020        65.40278         0.83929
C         56.31406        64.63627         0.74342
C         57.50553        66.78626         0.97472
C         56.18256        67.53081         1.06391
C         57.45005        69.77724         1.15041
C         56.32577        68.95058         1.64278
C         57.49044        71.22161         1.50182
C         56.27828        71.86518         2.04521
C         57.42024        74.02446         1.65427
C         56.23772        73.29155         2.05536
C         59.07205        54.65826        -1.04747
C         60.18035        56.93634        -0.90429
C         59.03770        56.16821        -0.87075
C         60.16523        58.35021        -0.57535
C         58.92806        59.02319        -0.35256
C         60.10937        61.10077         0.01204
C         58.88378        60.40764        -0.06476
C         60.12244        62.51875         0.39225
C         58.82840        63.24914         0.62880
C         59.99098        65.44310         0.44917
C         58.81080        64.73378         0.60326
C         60.03604        66.87056         0.59475
C         58.73270        67.56414         0.72451
C         60.01603        69.72914         1.24185
C         58.72961        69.05138         0.87887
C         60.03981        71.22779         1.43800
C         58.76344        71.94662         1.86399
C         59.78561        74.07440         0.90437
C         58.65613        73.40300         1.43083
C         61.36676        59.07633        -0.51069
C         62.59305        61.20880        -0.19604
C         61.36522        60.46251        -0.23169
C         62.61727        62.61328        -0.13812
C         61.30317        63.29779        -0.08058
C         62.49724        65.53662        -0.03841
C         61.23514        64.78410        -0.00728
C         62.45700        66.94007         0.04001
C         61.20646        67.59217         0.39586
C         62.38836        69.84195         0.31605
C         61.27018        69.01835         0.81803
C         62.30501        71.24649         0.23371
C         61.19747        71.99524         0.88215
C         62.09233        74.12538         0.01172
C         61.01844        73.44332         0.59000
C         63.77255        63.40857        -0.23294
C         64.90920        65.62195        -0.32364
C         63.73226        64.84300        -0.21443
C         64.88539        67.03253        -0.42497
C         63.61681        67.71030        -0.27105
C         64.38078        69.94665        -1.02711
C         63.46334        69.15414        -0.32516
C         64.49384        71.34334        -0.86821
C         63.36725        72.01227        -0.31650
C         64.40797        74.13594        -0.89027
C         63.29755        73.45318        -0.38065
C         66.15796        67.72403        -0.50798
C         67.25315        70.00231        -0.98349
C         66.29051        68.98462        -1.10500
C         66.99580        71.39050        -1.28563
C         65.70712        72.04152        -1.20062
C         66.79090        74.23268        -1.50865
C         65.62924        73.47090        -1.21863
C         68.12945        72.21767        -1.49045
C         68.02125        73.60032        -1.65314
O         32.01329        69.33623         1.59796
O         44.29210        38.86404         3.54931
O         46.85599        52.16446        -3.00386
O         34.49709        65.67155        -2.16938
O         61.00474        64.05650        -1.29989
O         52.63011        48.95083        -2.80918
O         40.09524        57.83726        -3.06007
O         32.01709        71.83260         1.87113
O         33.90360        60.17434        -2.93914
O         29.88484        61.17298         0.69560
O         44.41417        64.02611         0.25350
O         30.51783        70.91638        -1.27354
O         42.14483        60.83398         0.24762
O         43.04934        66.12143         1.01605
O         36.05103        72.00800        -0.97238
O         37.89626        71.54722         2.25038
O         39.89620        46.21416         2.00970
O         50.29497        45.74441         1.74078
O         48.54865        63.91380         0.58315
O         44.93926        50.70367         0.86700
O         39.82840        67.85582        -1.49271
O         34.62345        56.48147        -2.94218
O         50.00895        52.26533        -3.26663
O         65.21045        69.32864        -1.95688
O         57.01647        58.69365        -1.83610
O         48.33853        42.44515         2.94865
O         43.87951        46.91981        -1.64850
O         50.93462        69.92771         0.19175
O         40.04984        70.21672         2.29832
O         38.30877        52.90593         1.05932
O         54.52586        68.92438         3.21636
O         59.65917        62.75201         1.76333
O         28.12215        65.64216        -2.05094
O         41.97287        40.11297         3.38787
O         43.56787        44.58297         2.06581
O         42.17801        50.36262         1.24147
O         60.84800        69.08207         2.24538
O         41.57362        68.17082         1.70361
O         39.01055        64.42736        -2.25702
O         29.46946        63.05556        -2.34385
O         39.57528        43.77839        -0.59757
O         38.48011        48.66934         1.81782
O         48.83249        59.75336         0.42016
O         37.11246        63.11404         0.46009
O         57.25239        70.81589         0.10704
O         49.69387        48.56394         0.46811
O         52.22323        65.51863         2.02649
O         43.31885        56.75514        -3.23780
O         44.51234        70.20772        -1.19459
O         61.12261        71.65594         2.32321
O         55.79869        56.50253         0.75263
O         45.65486        56.34989        -0.30090
O         46.60329        64.52296        -2.25928
O         46.80310        71.13476         3.24963
O         25.77891        71.97386        -1.30791
O         53.51404        63.41410        -1.68663
O         46.32989        35.33347         1.14063
O         45.68233        54.52038        -3.24866
O         58.64332        68.50137        -0.47990
O         32.78293        66.06230         0.96974
O         46.65787        73.40077         0.40580
H         46.69288        74.35803         0.19622
O         55.44188        66.35485         3.03977
H         54.68382        65.92513         3.48823
O         32.11704        56.95999        -3.13614
H         32.91925        57.07466        -3.69795
O         49.89888        70.17592         3.65663
H         49.58489        70.83508         4.31170
O         36.31137        59.02997         0.41953
H         36.98534        59.60655         0.84136
O         59.99520        54.08389        -0.10603
H         59.67582        54.28059         0.79832
O         58.76012        71.93838         3.31604
H         59.69156        72.09363         3.59832
O         43.70015        68.03076        -1.94048
H         44.08803        68.91099        -2.22068
O         45.10853        43.42510        -1.08039
H         45.78674        43.79756        -1.68898
O         42.16537        49.10633        -2.12648
H         42.25051        48.29425        -2.67236
O         24.09521        65.14861        -0.33759
H         24.15892        65.28989        -1.30453
O         54.24827        46.94572        -2.75692
H         53.91394        47.61950        -3.39526
O         47.97445        50.55691         0.39880
H         48.63960        49.95563         0.82411
O         43.67123        71.44843         3.26071
H         43.38754        70.50903         3.28425
O         42.10738        70.64641        -0.99897
H         42.94443        70.79174        -1.53207
O         55.78248        67.77260        -0.31084
H         56.53243        68.23119        -0.75945
O         40.00436        39.44657         0.33642
H         39.29223        39.93738        -0.12324
O         54.22665        59.08783        -2.61107
H         55.20399        59.14274        -2.71841
O         46.56679        45.87587        -2.13705
H         45.75110        46.20976        -2.57525
O         46.66505        39.39630         0.03076
H         47.43707        38.83374        -0.19727
H         22.89800        75.36983         1.07382
H         25.32341        75.41173         0.69735
H         27.81113        75.44894         0.56595
H         30.25952        75.45964         0.34533
H         32.81302        75.43842         0.53288
H         35.24215        75.38671         0.92299
H         37.73082        75.35638         1.32633
H         40.22843        75.25672         1.75625
H         42.68986        75.17185         2.08579
H         45.16437        75.06889         2.29894
H         47.67600        74.88560         2.80059
H         50.14009        74.79206         3.00072
H         52.56084        74.82715         2.80098
H         54.89744        74.96434         2.41124
H         57.32461        75.10696         1.47611
H         59.68521        75.14473         0.66294
H         62.01240        75.20857        -0.16562
H         64.37771        75.23411        -0.96061
H         66.71784        75.32805        -1.56661
H         21.98655        69.46974         0.85255
H         20.79426        71.59981         1.34481
H         20.81247        74.08512         1.49925
H         25.19595        65.43390         1.36867
H         23.20893        67.32588         0.56984
H         26.82688        60.91909        -0.21942
H         25.62896        63.04878        -0.00200
H         29.44024        56.59821        -0.25310
H         28.16202        58.63929        -0.39416
H         31.83271        52.33528        -0.30756
H         30.64543        54.47457        -0.30849
H         34.33486        48.10008         0.23520
H         33.08914        50.20425        -0.06711
H         36.77204        43.89624         0.97136
H         35.58320        46.00164         0.64945
H         39.37791        39.79298         2.30563
H         38.11612        41.67202         1.42622
H         41.96427        35.31038         2.33004
H         40.71673        37.40515         1.96597
H         45.42872        32.17541         3.15354
H         43.39288        33.18521         2.47829
H         47.51523        33.31810         3.56284
H         48.82458        35.80372         3.36656
H         50.02428        37.72978         2.48203
H         51.22891        39.83493         2.03295
H         52.44620        41.85379         1.26943
H         53.64616        43.89560         0.57063
H         54.84263        45.75159        -0.32628
H         56.14231        47.84879        -0.99916
H         57.34991        49.93362        -1.05633
H         58.59516        52.00104        -1.28613
H         59.49347        54.43224        -2.06391
H         61.15042        56.46306        -1.11419
H         62.32073        58.56447        -0.70480
H         63.54000        60.65706        -0.29578
H         64.75144        62.91736        -0.34222
H         65.87743        65.10606        -0.40717
H         67.03670        67.23373        -0.06243
H         68.25668        69.75010        -0.60735
H         69.12204        71.74694        -1.54114
H         68.92348        74.19540        -1.85143
