         272
 CSIRO Nanostructure Databank - Neutral Graphene Oxide Data Set
C        -11.08265         0.43684         0.95861
C        -10.04074         1.37845         0.40092
C         -8.87505         0.64486        -0.27029
C         -7.64868         1.46842        -0.63264
C         -6.34025         0.77742        -0.95437
C         -5.02722         1.56827        -1.16534
C         -3.78330         0.88940        -0.61537
C         -2.51080         1.63121        -0.88106
C         -1.28180         0.83376        -1.25803
C          0.03727         1.56450        -1.43433
C          1.34153         0.80271        -1.45242
C          2.60607         1.47260        -0.96165
C          3.92167         0.75911        -1.22279
C          5.22797         1.48752        -1.25872
C          6.55357         0.72758        -1.12706
C          7.81703         1.42279        -0.70884
C          9.12541         0.68588        -0.49197
C         10.26081         1.46576         0.10756
C         11.28170         0.67155         0.84446
C         -9.53696         2.37615         1.44071
C         -8.61009         3.37893         0.79523
C         -7.60423         2.91575        -0.17735
C         -6.26612         3.71772        -0.25266
C         -5.01730         3.05702        -0.75717
C         -3.88094         3.76858        -1.10735
C         -2.59467         3.04430        -1.39860
C         -1.27602         3.78631        -1.48947
C         -0.01141         3.03697        -1.07630
C          1.29760         3.73955        -0.82431
C          2.58280         2.93586        -0.65713
C          3.91093         3.65434        -0.54788
C          5.21434         2.96069        -0.88914
C          6.32658         3.87408        -1.37758
C          7.77352         2.69243         0.14019
C          8.96330         3.61334         0.15295
C         10.15321         2.92931         0.34671
C         -8.62613         4.69521         1.16742
C         -7.45991         5.52178         1.00745
C         -6.25751         4.91453         0.61071
C         -4.97824         5.81283        -1.75100
C         -3.85216         5.22871        -1.22045
C         -2.57331         6.01143        -1.13563
C         -1.27663         5.28168        -1.27884
C          0.04849         5.95078        -0.93899
C          1.36948         5.23166        -1.02644
C          2.71672         5.98014        -0.84403
C          3.91697         5.15924        -0.38719
C          5.19605         5.94667        -0.42906
C          6.52979         5.33894        -0.87396
C          7.61967         5.77752         0.12465
C          8.80381         5.01645         0.34811
C         -7.43882         6.91629         1.35276
C         -6.23527         7.56516         1.49902
C         -5.05869         6.70815         1.70071
C         -3.79996         8.10148        -0.17344
C         -2.57185         7.25422        -0.27418
C         -1.28893         7.85840         0.21712
C          0.02893         7.22800        -0.14549
C          1.29694         7.95773         0.15901
C          2.62080         7.29980        -0.08429
C          3.86891         8.08902         0.03490
C          5.20064         7.48314        -0.39626
C          6.23287         7.87527         0.69425
C          7.54196         7.10149         0.56978
C         -6.12843         9.01801         1.58867
C         -5.03844         9.76953         1.27958
C         -3.76265         9.25168         0.76896
C         -2.57818         9.85682         1.07557
C         -1.21128         9.20871         0.94940
C         -0.07757        10.10057         0.40238
C          1.29648         9.42447         0.43131
C          2.45409        10.12508         0.52320
C          3.81107         9.60471         0.04438
C          5.09570        10.12405         0.68938
C          6.22157         9.39137         0.82644
C        -10.91096        -0.88101         1.10546
C         -9.58884        -1.55453         0.83782
C         -8.80151        -0.85320        -0.26685
C         -7.54920        -1.56715        -0.73335
C         -6.28460        -0.76174        -0.93202
C         -4.94336        -1.51372        -0.77979
C         -3.76655        -0.60961        -0.37185
C         -2.44251        -1.30365        -0.33101
C         -1.26718        -0.64521        -1.02404
C          0.02108        -1.41603        -1.22496
C          1.36056        -0.70858        -1.34480
C          2.62902        -1.43581        -0.96087
C          3.93139        -0.68354        -0.78550
C          5.22123        -1.45425        -0.71791
C          6.54091        -0.79375        -1.06806
C          7.81038        -1.54409        -0.72706
C          9.16128        -0.86339        -0.42867
C          9.68874        -1.26217         0.96528
C         11.02203        -0.58441         1.23812
C         -9.71320        -3.04135         0.62443
C         -8.72748        -3.75657         0.06149
C         -7.49981        -3.12414        -0.57879
C         -6.27195        -3.55901         0.27407
C         -5.00655        -2.76072         0.15044
C         -3.68653        -3.49602         0.30736
C         -2.40410        -2.78554        -0.11012
C         -1.17148        -3.55988        -0.38813
C          0.03065        -2.88101        -0.98600
C          1.27326        -3.56941        -0.48393
C          2.55501        -2.75630        -0.18725
C          3.82505        -3.60699        -0.39846
C          5.15182        -2.97004        -0.68623
C          6.41889        -3.72618        -0.33517
C          7.72756        -2.99994        -0.29063
C          8.79310        -3.57456         0.59018
C          9.76474        -2.75755         1.11726
C         -8.77219        -5.26536        -0.06110
C         -7.47888        -5.90345         0.43408
C         -6.27794        -5.04049         0.63522
C         -4.94712        -5.76103         0.69501
C         -3.67685        -5.00709         0.35895
C         -2.53971        -5.77435        -0.28919
C         -1.31412        -5.00209        -0.83723
C         -0.01237        -5.84198        -0.82247
C          1.24311        -5.07500        -0.44832
C          2.53106        -5.80201        -0.08602
C          3.78357        -5.01285         0.15327
C          5.07480        -5.75068         0.44211
C          6.32849        -4.92358         0.60443
C          7.59294        -5.75519         0.66632
C          8.77522        -4.98593         0.83654
C         -7.43441        -7.24619         0.66213
C         -6.20141        -8.01557         0.96545
C         -4.90642        -7.26372         0.81784
C         -3.75583        -8.01982         0.23825
C         -2.50795        -7.26923        -0.14994
C         -1.18847        -8.00086         0.09182
C         -0.00181        -7.32343        -0.58317
C          1.32873        -8.03749        -0.43632
C          2.61021        -7.27467        -0.35158
C          3.88985        -8.07177        -0.05153
C          5.10246        -7.24146         0.36486
C          6.41435        -8.01029         0.33457
C          7.57495        -7.13758         0.77678
C         -6.14379        -9.50807         0.87355
C         -4.98193       -10.18770         0.74690
C         -3.74361        -9.51328         0.25655
C         -2.41871       -10.19025         0.10558
C         -1.25464        -9.52035        -0.09670
C          0.06654       -10.25760        -0.33598
C          1.32255        -9.46118         0.01475
C          2.41184        -9.98480         0.62980
C          3.61428        -9.12149         1.04175
C          4.93343        -9.83740         1.32447
C          6.15433        -9.30814         1.10652
O         -4.77463         7.86122        -0.88915
O         -1.38911        -3.09432         0.94363
O          3.32631         7.42921         1.19537
O          4.92640        -6.58651         1.64163
O          4.64401         5.47321         0.82015
O          4.54153         1.10426        -2.48984
O         -0.08367        -6.78050        -1.93473
O         -0.92867        -7.96687         1.47809
O         -5.87852        -2.64774         1.31326
O         -2.03562         6.92178         1.04881
O          7.01750         2.73934         1.09644
O          7.46892         1.30528        -2.10861
O          4.36169        -3.57801        -1.75425
O         10.17817         1.19001        -1.35664
O         -2.87967        -6.65252        -1.41780
O          0.75600         1.31863        -2.67761
O         -7.07392        -1.23934        -2.05590
O          4.62262        -0.86424         0.48101
O         -3.07121         1.58124         0.45890
O         -5.96652         6.02064        -2.29702
O          0.86914        -4.27592         0.72399
O          7.38036        -3.89966        -1.39949
O         -5.59546        -5.23003         1.89019
O          2.11335        -7.70436        -1.65099
O          4.77079         3.09358         0.47539
O          6.97954         6.00275        -2.08495
O         -1.84491         6.07319        -2.39186
O          0.67330         7.08272         1.17172
O          0.37410         3.39341         0.27309
O         -7.25752         1.25624        -2.00131
O         -3.07617        -0.79373         0.89360
O         -3.38779        -4.20045         1.53586
O          2.19933        -1.39127        -2.33433
O         -9.47310        -0.16949        -1.34541
O          6.31264        -4.34665         1.99539
O         -5.07419         5.42985         1.03316
O         -1.94067         3.29760        -2.67322
O         -1.64004        -0.07613        -2.32854
O          2.88994        -5.32442         1.25165
O         -0.09557        -2.40042        -2.32576
O          2.46014         1.93661         0.40406
O          7.34296        -1.40350        -2.10303
O         -4.13505        -8.78003        -0.97121
O         -4.09863         6.95381         2.40137
O         -7.34405         3.84632        -1.25643
O         -5.37690        -7.64560         2.13884
O          0.77504         5.84295        -2.21485
O         -7.23641        -3.72411        -1.79298
O        -10.67332         2.16826        -0.62711
H        -10.75840         1.59439        -1.42020
O         -4.58961        -2.02681        -2.07528
H         -5.43507        -2.21021        -2.55709
O         -0.86226         8.93641         2.32039
H         -1.32770         8.11060         2.58685
O         10.10220        -1.35516        -1.37925
H          9.78910        -1.10238        -2.27408
O          3.84368        10.09188        -1.32759
H          4.57160         9.60293        -1.78724
O          2.49194        -2.37189         1.18867
H          2.10914        -3.12943         1.69252
O         -8.73697        -1.36299         2.00877
H         -9.17471        -1.77269         2.78343
O          8.69784        -0.75257         1.90081
H          8.92410        -1.05620         2.80488
O          6.86994         3.60072        -2.43825
H          7.26286         5.28417        -2.71200
O          3.15571         6.34013        -2.18915
H          2.35476         6.54827        -2.72882
O          4.25285        -8.81208        -1.23360
H          3.49102        -8.74355        -1.86627
O          3.21033        -8.43143         2.23877
H          3.00063        -9.09057         2.93121
O         -0.38737        10.36666        -0.97161
H          0.32824        10.91359        -1.35730
O          5.04110        -3.69264         2.19163
H          4.50031        -4.38806         2.64669
O         -4.80326         1.53716        -2.59455
H         -5.67147         1.69255        -3.03296
O          0.13659       -10.58498        -1.73548
H          0.13998        -9.75153        -2.25210
O         -9.89124        -5.82191         0.62511
H         -9.71087        -5.79374         1.58684
O          5.77370         7.37659         1.97781
H          6.20534         7.89181         2.68980
O          5.55596         8.09880        -1.63831
H          6.22510         7.53741        -2.10279
O         -8.80470         1.64710         2.43277
H         -8.52647         2.26420         3.13954
O          6.80914        -8.37436        -1.00878
H          6.01494        -8.78053        -1.44004
O         -1.59165        -4.75777        -2.23415
H         -1.68323        -5.63405        -2.67571
H         11.78471        -1.15438         1.79181
H         12.24821         1.14523         1.07614
H         11.07475         3.47779         0.60271
H          9.67663         5.56407         0.74435
H          8.38100         7.46795         1.18929
H          7.13461         9.88155         1.20558
H          5.14643        11.20751         0.88699
H          2.39428        11.21255         0.70194
H         -0.04299        11.06423         0.98170
H         -2.60715        10.74693         1.72656
H         -5.08772        10.85400         1.46645
H         -7.04090         9.54696         1.90890
H         -8.38846         7.47176         1.37697
H         -9.45280         5.08656         1.77961
H        -10.40108         2.91366         1.91885
H        -12.05578         0.89323         1.19878
H        -11.73285        -1.50379         1.49381
H        -10.59327        -3.56543         1.03384
H         -8.89398        -5.51090        -1.15007
H         -8.35363        -7.82706         0.48194
H         -7.07127       -10.05840         1.09738
H         -4.97736       -11.28596         0.82206
H         -2.41720       -11.29231         0.06373
H          0.06627       -11.22676         0.22298
H          2.38325       -11.03292         0.97337
H          4.87061       -10.81463         1.83357
H          7.04258        -9.89386         1.39586
H          8.54325        -7.64905         0.91037
H          9.69635        -5.47379         1.19193
H         10.55055        -3.18998         1.75699
