         600
 CSIRO Nanostructure Databank - Neutral Graphene Oxide Data Set
C         22.95728        27.14810        -0.78024
C         22.95656        28.23291        -1.63135
C         23.03030        31.95058        -2.24586
C         23.02140        33.28788        -1.74684
C         22.94677        36.04445        -0.88716
C         22.93647        37.40777        -0.67805
C         22.95693        40.32382        -0.43497
C         22.96140        41.71743        -0.21802
C         23.00135        44.53761         0.63003
C         23.03870        45.85751         1.02699
C         25.39546        24.82249         0.75059
C         24.21063        25.43859         0.45112
C         25.40607        27.37423        -0.52328
C         24.18814        26.67414        -0.26652
C         25.37319        28.61992        -1.23145
C         24.16231        28.92976        -1.85684
C         25.50263        31.75339        -1.91025
C         24.17549        31.21068        -2.26402
C         25.48292        33.25981        -1.55421
C         24.17516        33.93030        -1.36758
C         25.37194        36.00319        -0.67091
C         24.16518        35.32284        -0.93005
C         25.38245        37.42124        -0.58412
C         24.14494        38.13491        -0.59991
C         25.38738        40.28788        -0.80218
C         24.12485        39.58116        -0.58290
C         25.38250        41.82923        -0.60792
C         24.13508        42.46232        -0.16884
C         25.44346        44.49136         0.41943
C         24.19160        43.83085         0.30308
C         25.48612        45.86025         0.82529
C         24.27249        46.54778         1.12000
C         25.50943        48.59601         1.56463
C         24.31737        47.92257         1.49944
C         27.90385        23.31190         0.87522
C         27.87453        24.68834         0.51010
C         26.64031        25.41576         0.37880
C         27.88563        27.36680        -0.45879
C         26.64751        26.72637        -0.17795
C         27.91035        28.73057        -1.04734
C         26.63007        29.43228        -1.45420
C         27.85343        31.63692        -1.19176
C         26.66698        30.94256        -1.48609
C         27.86227        33.09689        -0.96246
C         26.68998        33.82824        -0.94991
C         27.88906        35.98888        -0.51192
C         26.61373        35.21258        -0.32564
C         27.87890        37.41487        -0.52216
C         26.63856        38.14276        -0.53794
C         27.87946        40.27912        -0.63817
C         26.66726        39.55906        -0.64926
C         27.90321        41.78738        -0.84634
C         26.66170        42.48828        -0.34816
C         27.93785        44.50503         0.25093
C         26.68262        43.79958         0.11576
C         27.95693        45.86747         0.64547
C         26.73112        46.55843         0.92344
C         27.99189        48.64060         1.35303
C         26.75075        47.94137         1.27559
C         28.04968        50.07623         1.51494
C         30.33167        23.22571         0.62309
C         29.08377        22.60433         0.90932
C         30.33679        24.61182         0.31596
C         29.10464        25.33627         0.22161
C         30.35378        27.40992        -0.34070
C         29.09904        26.70915        -0.19292
C         30.35239        28.80150        -0.57003
C         29.13226        29.53254        -0.82267
C         30.39216        31.68523        -1.01506
C         29.09499        30.91533        -0.95224
C         30.30124        33.11038        -0.51682
C         29.11218        33.79643        -0.60564
C         30.31552        35.99957        -0.57091
C         29.10038        35.26717        -0.52176
C         30.33885        37.41536        -0.58216
C         29.10478        38.13904        -0.55008
C         30.34905        40.28585        -0.49351
C         29.11806        39.57833        -0.56325
C         30.37875        41.70867        -0.38491
C         29.16919        42.44196        -0.35845
C         30.41284        44.49116         0.19567
C         29.16925        43.80736         0.01670
C         30.42673        45.87736         0.53334
C         29.20121        46.56088         0.77429
C         30.46810        48.61414         1.30261
C         29.22420        47.93808         1.16185
C         30.49592        49.97228         1.96402
C         29.21874        50.72993         1.71216
C         32.78972        20.37613         0.85985
C         31.60140        21.07943         0.84048
C         32.81104        23.16611         0.46453
C         31.57361        22.48414         0.64562
C         32.81153        24.57568         0.21654
C         31.58194        25.29365         0.10563
C         32.82912        27.39045        -0.24049
C         31.58348        26.69350        -0.15491
C         32.83662        28.79775        -0.36525
C         31.59340        29.52778        -0.48632
C         32.84639        31.61670        -0.26371
C         31.57765        30.91422        -0.49069
C         32.87364        33.11213        -0.20046
C         31.55286        33.82105        -0.18298
C         32.85325        35.99172        -0.68680
C         31.59026        35.31446        -0.34542
C         32.79913        37.38820        -0.83423
C         31.59245        38.10029        -0.62400
C         32.83754        40.31309        -0.67350
C         31.62827        39.54561        -0.21227
C         32.86669        41.69689        -0.48766
C         31.63069        42.40045        -0.24541
C         32.88532        44.50782         0.04780
C         31.64235        43.79527        -0.00741
C         32.89043        45.90620         0.32713
C         31.66304        46.58570         0.60158
C         32.91851        48.70246         0.93274
C         31.67541        47.96810         0.96483
C         32.92921        50.10790         1.22347
C         31.75217        50.76483         1.67520
C         32.98532        52.86333         1.79784
C         31.80833        52.12603         1.96989
C         35.32299        18.88861         0.89444
C         35.28795        20.30142         0.77608
C         34.04199        21.02830         0.72182
C         35.29534        23.13771         0.44697
C         34.05100        22.44356         0.53836
C         35.28639        24.55274         0.21850
C         34.05563        25.26109         0.07108
C         35.30414        27.35674        -0.29365
C         34.06894        26.67084        -0.15212
C         35.31015        28.77807        -0.48791
C         34.07883        29.49107        -0.46819
C         35.29724        31.62821        -0.64260
C         34.10119        30.90613        -0.52376
C         35.27875        33.07249        -0.75028
C         34.11185        33.81295        -0.60602
C         35.30073        35.94747        -0.95768
C         34.09694        35.26070        -0.78852
C         35.33904        37.39432        -1.22446
C         34.01684        38.12485        -1.24000
C         35.37454        40.33281        -1.07092
C         34.01756        39.61733        -1.16825
C         35.35779        41.73889        -0.62642
C         34.11739        42.42002        -0.48040
C         35.34588        44.53149        -0.11519
C         34.11348        43.81718        -0.17763
C         35.34480        45.94179         0.09162
C         34.11676        46.63103         0.32492
C         35.33465        48.79301         0.42195
C         34.11749        48.04409         0.56777
C         35.31353        50.18886         0.60483
C         34.13787        50.85485         1.05682
C         35.40466        53.02058         1.20899
C         34.16552        52.26005         1.34269
C         35.47551        54.39440         1.54912
C         37.76567        18.88043         0.98748
C         36.51727        18.20446         0.98583
C         37.77026        20.30166         0.85549
C         36.52883        21.00482         0.73080
C         37.78252        23.11611         0.62488
C         36.53342        22.42546         0.58027
C         37.75752        24.58930         0.54179
C         36.51107        25.26886         0.16148
C         37.78998        27.30162        -0.43525
C         36.53484        26.64107        -0.14963
C         37.74964        28.71018        -0.88825
C         36.51928        29.49664        -0.66314
C         37.77645        31.64502        -0.77074
C         36.53335        30.90781        -0.74759
C         37.82153        33.02956        -0.83572
C         36.55347        33.73990        -1.09070
C         37.84031        35.96728        -0.88897
C         36.57551        35.24524        -1.14594
C         37.82494        37.38387        -0.79933
C         36.60800        38.13342        -0.98933
C         37.82925        40.23486        -0.61093
C         36.61137        39.53072        -0.89240
C         37.83505        41.67305        -0.51507
C         36.58520        42.41198        -0.48554
C         37.79898        44.55341        -0.25874
C         36.58694        43.83557        -0.28015
C         37.80679        45.96005        -0.08080
C         36.57534        46.66364         0.07960
C         37.80651        48.78001         0.13172
C         36.57725        48.09035         0.17649
C         37.82283        50.24244         0.06152
C         36.50657        50.99100         0.29333
C         37.81125        53.09406         0.63551
C         36.58362        52.39500         0.73185
C         37.84886        54.49384         0.95286
C         36.64941        55.10653         1.40849
C         40.25141        16.04980         1.21902
C         39.05070        16.75564         1.20582
C         40.23386        18.91353         1.18442
C         39.01091        18.17340         1.14340
C         40.24856        20.30119         1.02163
C         39.01105        21.01780         0.86631
C         40.29332        23.20797         1.01590
C         39.00202        22.43754         0.76890
C         40.33002        24.55929         0.32645
C         39.06761        25.32345         0.31112
C         40.26382        27.28066        -0.74156
C         38.99715        26.64216        -0.32783
C         40.31207        28.73379        -0.77866
C         39.06291        29.45574        -0.97722
C         40.31491        31.64799        -0.52293
C         39.03165        30.89545        -0.60924
C         40.28630        33.11736        -0.60683
C         39.05450        33.78692        -0.74220
C         40.27323        35.92792        -0.47973
C         39.04454        35.23160        -0.73545
C         40.27027        37.36056        -0.40973
C         39.05855        38.08164        -0.57199
C         40.28507        40.22126        -0.35072
C         39.05211        39.51657        -0.50848
C         40.28456        41.65148        -0.28250
C         39.05108        42.36146        -0.38691
C         40.28453        44.55398        -0.08040
C         39.07872        43.85095        -0.62443
C         40.28844        45.93925         0.01702
C         39.04746        46.67385        -0.02642
C         40.29201        48.80234         0.20691
C         39.05073        48.08217         0.10989
C         40.29913        50.23488         0.32050
C         39.07974        50.96523         0.28998
C         40.29586        53.06930         0.45527
C         39.05788        52.37421         0.40156
C         40.28897        54.56495         0.26866
C         39.06234        55.24313         0.82897
C         40.31750        57.34816         0.93595
C         39.12640        56.63943         1.02328
C         42.71224        16.02558         1.19272
C         41.48344        16.71534         1.26274
C         42.76664        18.87677         1.08326
C         41.50617        18.19369         1.55581
C         42.76313        20.27430         0.88676
C         41.52340        21.01875         0.91701
C         42.77793        23.09254         0.50633
C         41.54259        22.39845         0.75424
C         42.78394        24.47940         0.20916
C         41.52377        25.16756         0.02512
C         42.81904        27.32267        -0.41957
C         41.56633        26.53566        -0.55700
C         42.83891        28.71385        -0.60280
C         41.58661        29.43245        -0.90219
C         42.83494        31.66368        -0.48119
C         41.59640        30.94841        -0.84760
C         42.77511        33.05951        -0.29785
C         41.51821        33.80632        -0.42646
C         42.68935        35.91510         0.26431
C         41.48665        35.20432        -0.29595
C         42.73162        37.38386        -0.06575
C         41.51780        38.07470        -0.24215
C         42.74548        40.21817        -0.15483
C         41.51543        39.50888        -0.25974
C         42.73581        41.65199        -0.08621
C         41.50963        42.34682        -0.09659
C         42.77314        44.52774         0.07932
C         41.49228        43.78440         0.34897
C         42.76639        45.94576         0.09861
C         41.52872        46.66460         0.15745
C         42.77194        48.79901         0.23837
C         41.52539        48.08419         0.20854
C         42.78424        50.21855         0.39119
C         41.53157        50.93966         0.46139
C         42.75985        53.09002         0.78323
C         41.50165        52.35973         0.52671
C         42.79209        54.56152         0.67442
C         41.57877        55.25965         0.63947
C         42.80855        57.35010         0.91313
C         41.57135        56.66945         0.79704
C         43.91660        16.70762         1.13251
C         45.22730        18.82271         0.84054
C         43.97123        18.13277         1.03005
C         45.23695        20.24023         0.69351
C         44.00343        20.96308         0.69216
C         45.25111        23.07219         0.34362
C         44.01243        22.37391         0.50955
C         45.24800        24.48616         0.15219
C         44.01338        25.18750         0.04616
C         45.25907        27.31586        -0.23440
C         44.02299        26.60738        -0.17616
C         45.26326        28.74824        -0.34110
C         44.05314        29.46267        -0.46317
C         45.25621        31.62145        -0.12080
C         44.04891        30.92036        -0.38407
C         45.23176        33.05936        -0.02106
C         43.99692        33.78119        -0.08906
C         45.20403        35.91583         0.13944
C         43.99447        35.19514         0.03959
C         45.20486        37.36262         0.14506
C         43.96961        38.07795         0.01177
C         45.21031        40.22689         0.00728
C         43.97815        39.51038        -0.05349
C         45.20604        41.66057        -0.04118
C         43.97920        42.37038        -0.02705
C         45.22124        44.52370        -0.09500
C         43.98202        43.81104        -0.01474
C         45.22765        45.94970        -0.07585
C         43.99919        46.66303         0.03203
C         45.24047        48.79813         0.04681
C         44.00136        48.09053         0.10922
C         45.24882        50.21954         0.16868
C         44.02452        50.90052         0.39641
C         45.30351        53.09770         0.47914
C         44.06596        52.33497         0.71616
C         45.29081        54.50754         0.58110
C         44.03570        55.24659         0.73960
C         44.00691        56.65835         0.84743
C         47.66467        18.81267         0.71230
C         46.46557        18.13509         0.82812
C         47.71023        20.22166         0.58686
C         46.47966        20.94086         0.55382
C         47.72897        23.06803         0.26621
C         46.48628        22.36069         0.38571
C         47.73357        24.47128         0.09006
C         46.48923        25.19433         0.01994
C         47.74830        27.31966        -0.49162
C         46.47709        26.59222        -0.16142
C         47.71008        28.77088        -0.10559
C         46.51866        29.46050        -0.17401
C         47.70843        31.59189         0.18681
C         46.49604        30.90527        -0.01236
C         47.66731        33.03583         0.44568
C         46.42877        33.78370         0.19851
C         47.68702        35.92626         0.26056
C         46.44239        35.19726         0.21296
C         47.65876        37.34810         0.27800
C         46.43986        38.07154         0.21386
C         47.65787        40.25325         0.08450
C         46.44761        39.52297         0.12829
C         47.67141        41.66408        -0.10157
C         46.44316        42.37816        -0.10574
C         47.68324        44.51587        -0.24794
C         46.45008        43.80714        -0.15940
C         47.69113        45.94490        -0.26467
C         46.46425        46.66097        -0.15675
C         47.69836        48.80627        -0.20474
C         46.47050        48.09007        -0.10901
C         47.70026        50.23589        -0.12793
C         46.48647        50.94253         0.08451
C         47.71785        53.09777         0.03117
C         46.49901        52.38322         0.19305
C         47.69639        54.50560         0.16670
C         46.52331        55.18977         0.42598
C         50.21082        20.25766         0.59808
C         48.96630        20.93690         0.50889
C         50.21862        23.05498         0.29564
C         48.97370        22.34823         0.35612
C         50.22618        24.47320         0.13090
C         48.98649        25.18846         0.03210
C         50.21934        27.31058        -0.06450
C         48.99385        26.59148        -0.07097
C         50.23173        28.73838        -0.01247
C         48.96324        29.43518         0.39693
C         50.18245        31.62637         0.08781
C         48.96917        30.92602         0.19059
C         50.21410        33.06409         0.10031
C         48.98906        33.79964         0.45087
C         50.16807        35.93295         0.05971
C         48.93643        35.24722         0.24172
C         50.19058        37.35301         0.10548
C         48.93957        38.05342         0.41365
C         50.18595        40.23606        -0.12665
C         48.94495        39.58172         0.29776
C         50.15360        41.66095        -0.33162
C         48.91486        42.37252        -0.22944
C         50.14637        44.50446        -0.44242
C         48.91516        43.79329        -0.31622
C         50.15169        45.93569        -0.46922
C         48.92472        46.65630        -0.37130
C         50.15386        48.79482        -0.51081
C         48.93130        48.09037        -0.36853
C         50.15768        50.23679        -0.49455
C         48.93789        50.95117        -0.27864
C         50.15525        53.05444        -0.49077
C         48.94601        52.37581        -0.24313
C         51.40919        20.93795         0.56273
C         52.70413        23.06725         0.40825
C         51.45482        22.34900         0.41860
C         52.72040        24.46762         0.13909
C         51.46194        25.17710        -0.00446
C         52.66457        27.32959        -0.41532
C         51.43937        26.58204        -0.14267
C         52.67934        28.78226        -0.25103
C         51.43772        29.46458        -0.07287
C         52.63948        31.59988        -0.23971
C         51.43924        30.90745        -0.05703
C         52.61977        33.05964        -0.61601
C         51.37787        33.78051        -0.16627
C         52.62302        35.92481        -0.19159
C         51.39196        35.20725        -0.10680
C         52.62667        37.34243        -0.16914
C         51.39514        38.06590        -0.05156
C         52.62425        40.17477        -0.47017
C         51.39076        39.50641        -0.18670
C         52.58920        41.60052        -0.95207
C         51.35413        42.36286        -0.55505
C         52.61418        44.49146        -0.64794
C         51.37045        43.78231        -0.56636
C         52.61931        45.91398        -0.63101
C         51.38717        46.63813        -0.56987
C         52.62337        48.76275        -0.69226
C         51.39464        48.07187        -0.61298
C         52.65362        50.23617        -1.01208
C         51.36126        50.95455        -0.70198
C         51.33220        52.35338        -0.73158
C         55.12748        23.11723         0.74966
C         53.94140        22.42209         0.69376
C         55.17959        24.51629         0.47396
C         53.95644        25.16330         0.13220
C         55.19764        27.36794         0.01473
C         54.00840        26.56966        -0.27472
C         55.16013        28.77625        -0.10119
C         53.90397        29.48164        -0.23187
C         55.12284        31.64108        -0.20774
C         53.89320        30.91285        -0.24272
C         55.11282        33.08639        -0.20296
C         53.89404        33.79532        -0.27897
C         55.10489        35.92764        -0.12500
C         53.87543        35.20510        -0.21957
C         55.09296        37.36941        -0.18900
C         53.86777        38.06021        -0.24945
C         55.09245        40.20406        -0.58566
C         53.84211        39.49104        -0.43219
C         55.08923        41.63185        -0.69269
C         53.86957        42.35190        -0.70833
C         55.10070        44.47256        -0.64178
C         53.85560        43.76113        -0.67459
C         55.09839        45.92636        -0.55052
C         53.85862        46.62905        -0.60484
C         55.08726        48.77324        -0.42541
C         53.85772        48.05918        -0.59304
C         55.01820        50.20598        -0.23295
C         53.87250        50.89937        -0.42226
C         57.68261        24.60601         0.67950
C         56.40286        25.26123         0.53045
C         57.58795        27.44253         0.54028
C         56.39271        26.68935         0.39350
C         57.59820        28.82719         0.27606
C         56.37029        29.52285         0.02185
C         57.59647        31.67616         0.00920
C         56.35747        30.94659        -0.07016
C         57.59433        33.08842         0.00201
C         56.34205        33.80751        -0.06423
C         57.57826        35.97953         0.31583
C         56.32408        35.21903        -0.03249
C         57.56484        37.41591        -0.15712
C         56.34183        38.09360        -0.27592
C         57.56361        40.23064        -0.63774
C         56.32179        39.51441        -0.50495
C         57.56219        41.63198        -0.85229
C         56.33408        42.34190        -0.79013
C         57.56801        44.53452        -0.84106
C         56.30182        43.76626        -0.76407
C         57.56062        45.85532        -0.10381
C         56.30021        46.63625        -0.38816
C         57.57995        48.72593        -0.18720
C         56.31839        48.06042        -0.31616
C         58.83002        25.29603         0.88128
C         60.07844        27.45895         0.59033
C         58.82889        26.78263         1.08739
C         60.07200        28.76983         0.26078
C         58.84544        29.54759         0.22694
C         60.06149        31.70229         0.02296
C         58.84161        30.94893         0.07794
C         60.05792        33.06638        -0.04298
C         58.83725        33.82084        -0.00811
C         60.03504        35.99267        -0.14759
C         58.84670        35.23077        -0.00223
C         60.02365        37.36693        -0.22983
C         58.80082        38.12061        -0.27645
C         60.02964        40.28867        -0.48191
C         58.80090        39.52135        -0.49717
C         60.06341        41.60050        -0.79683
C         58.84649        42.31283        -1.32122
C         60.09369        44.56024        -0.67625
C         58.86582        43.83152        -1.07019
C         60.05709        45.89968        -0.39375
C         58.83415        46.63252        -0.29021
C         58.78862        48.02897        -0.21259
O         32.97550        32.33411         1.04606
O         41.64472        30.29589        -2.14394
O         39.67991        31.11402         0.70281
O         31.51325        34.67286         1.00892
O         27.48456        28.79715        -2.46823
O         25.33299        41.20385        -1.94952
O         49.03523        38.91044         1.60591
O         34.61579        37.66533        -2.48898
O         34.66261        40.20130        -2.34322
O         43.42578        52.63370         2.01769
O         37.02751        50.77452        -1.05745
O         53.40815        26.84359        -1.58135
O         38.34852        29.03411        -2.19467
O         24.09928        29.93708        -2.82180
O         36.56679        34.43434        -2.38911
O         38.42770        25.29015         1.66214
O         25.79852        32.79968        -2.91092
O         48.34509        33.38047         1.70757
O         40.96473        26.61265        -1.89312
O         58.16167        44.55913        -2.17561
O         58.86769        42.13130        -2.76987
H         58.39228        42.90889        -3.14838
O         57.56348        36.07316         1.79868
H         56.74701        36.55710         2.04823
O         57.50228        45.48818         1.32253
H         57.47126        46.32152         1.83854
O         52.80993        50.32956        -2.47917
H         53.63988        49.85999        -2.70990
O         40.18670        54.74022        -1.20299
H         40.07856        55.70146        -1.36874
O         39.19064        43.98166        -2.10408
H         38.37238        43.60357        -2.49272
O         48.90912        29.25304         1.87481
H         48.25964        29.90053         2.22545
O         58.80933        26.99202         2.55173
H         58.81098        27.96157         2.70154
O         26.49708        34.97532         1.13008
H         27.35727        34.61608         1.43762
O         42.48634        35.86989         1.73557
H         43.26295        36.30507         2.14859
O         41.39532        43.70479         1.83674
H         42.22001        43.27879         2.15587
O         27.91434        41.97980        -2.30945
H         27.02546        41.68004        -2.62685
O         40.31429        23.49097         2.45551
H         39.58513        24.14039         2.61732
O         52.55369        33.06567        -2.09435
H         53.33579        32.57281        -2.42310
O         47.81453        27.32531        -1.97696
H         47.77521        26.39092        -2.27414
O         41.56725        18.27836         3.03646
H         42.38143        17.80718         3.31563
O         30.69352        31.84922        -2.46209
H         30.45112        31.01160        -2.91322
O         52.49380        41.48539        -2.43419
H         52.51295        42.39765        -2.79553
O         30.53391        49.70962         3.41883
H         29.73517        49.18332         3.63652
O         31.75645        39.49079         1.27964
H         30.97024        39.01122         1.61959
H         22.03163        26.59546        -0.56724
H         22.04234        28.56542        -2.13911
H         22.09354        31.49948        -2.59620
H         22.04765        33.78743        -1.67308
H         21.98791        35.52837        -1.02062
H         21.97198        37.93057        -0.65116
H         21.98931        39.81096        -0.35412
H         22.00025        42.18968         0.02539
H         22.02848        44.03518         0.55057
H         22.10645        46.39012         1.26371
H         25.38042        23.85251         1.26405
H         23.25398        24.96014         0.70542
H         25.50919        49.65285         1.86276
H         23.37538        48.43930         1.73356
H         26.96905        22.78409         1.10533
H         27.12317        50.66001         1.41897
H         29.04867        21.53949         1.17483
H         29.21259        51.82532         1.80202
H         32.74882        19.28854         1.00446
H         30.66339        20.52267         0.96597
H         32.96529        53.93285         2.04438
H         30.92336        52.64409         2.36335
H         34.38830        18.31305         0.91472
H         34.58667        54.91992         1.92183
H         36.48266        17.11130         1.07967
H         36.64830        56.17136         1.67614
H         40.23520        14.95134         1.15593
H         38.11656        16.18048         1.16783
H         40.31594        58.43788         1.07965
H         38.21110        57.20013         1.26018
H         42.70664        14.92627         1.14568
H         42.81086        58.44170         1.04466
H         44.84341        16.12214         1.07815
H         44.94424        57.22657         0.91421
H         48.59383        18.22823         0.72198
H         46.49309        17.04219         0.92784
H         48.62417        55.08349         0.06410
H         46.56300        56.28397         0.50524
H         50.23547        19.16569         0.70740
H         50.18403        54.15145        -0.51424
H         52.34042        20.36125         0.63764
H         52.24696        52.91859        -0.95506
H         56.04453        22.57890         1.02342
H         53.95692        21.34715         0.91770
H         55.91176        50.73830         0.12288
H         53.86382        51.98398        -0.24395
H         57.72843        23.51086         0.59318
H         57.61250        49.82249        -0.14801
H         59.78664        24.76171         0.98133
H         61.02303        26.89478         0.60500
H         61.01799        29.25460        -0.01937
H         61.02552        31.17721         0.04298
H         61.02100        33.59245        -0.07309
H         61.00381        35.48152        -0.23414
H         60.98284        37.88653        -0.35209
H         60.96213        39.79543        -0.17402
H         61.02902        42.12467        -0.78891
H         61.06692        44.05397        -0.73037
H         61.00346        46.44574        -0.25481
H         59.73176        48.59627        -0.22472
