         600
 CSIRO Nanostructure Databank - Neutral Graphene Oxide Data Set
C         23.11544        27.33202        -1.15693
C         23.03456        28.66818        -0.94262
C         23.00203        31.69285        -0.70816
C         23.00110        33.08301        -0.76121
C         23.01519        36.01686        -0.94609
C         23.01776        37.40289        -0.99359
C         23.01770        40.35053        -0.98147
C         23.01707        41.72433        -0.81449
C         23.06452        44.66597        -0.44076
C         23.08451        46.04179        -0.16649
C         25.65183        24.60194        -1.73485
C         24.43845        25.25618        -1.61263
C         25.58769        27.32341        -1.06905
C         24.38302        26.63721        -1.29908
C         25.56334        28.79379        -0.89462
C         24.24156        29.51505        -0.92346
C         25.41976        31.68529        -0.48459
C         24.19998        30.97068        -0.58669
C         25.42234        33.08141        -0.69704
C         24.20877        33.80677        -0.82245
C         25.43069        35.99702        -1.00631
C         24.21624        35.27265        -0.94181
C         25.43458        37.40770        -1.04325
C         24.22234        38.13998        -1.03119
C         25.43040        40.31568        -0.77860
C         24.22396        39.60675        -0.96126
C         25.43355        41.70871        -0.49358
C         24.20959        42.43335        -0.53743
C         25.40937        44.45688         0.21858
C         24.20950        43.85832        -0.26224
C         25.33200        45.80839         0.79240
C         24.17734        46.64225         0.45651
C         25.32630        48.68840         1.20864
C         24.22107        48.05282         0.74884
C         28.25810        23.22386        -1.94096
C         28.17366        24.62203        -1.65155
C         26.88167        25.27890        -1.52698
C         28.05345        27.36673        -0.88315
C         26.83495        26.65400        -1.17547
C         27.99410        28.65410        -0.28754
C         26.73337        29.44821        -0.21888
C         27.92562        31.79788        -0.03885
C         26.67683        30.97705        -0.07792
C         27.96038        33.11681        -0.52396
C         26.70898        33.77368        -0.93939
C         27.98309        35.99917        -0.84882
C         26.71936        35.27445        -1.11490
C         27.98418        37.40227        -0.84624
C         26.72734        38.12217        -1.14248
C         27.95973        40.29056        -0.52661
C         26.71999        39.62707        -0.96181
C         27.91079        41.67329        -0.20056
C         26.67220        42.38472        -0.18386
C         27.87664        44.46227         0.48771
C         26.63851        43.75583         0.21106
C         27.86736        45.80642         0.93890
C         26.62436        46.49852         1.28101
C         27.85679        48.74662         1.09983
C         26.62123        48.01338         1.60565
C         27.86050        50.03458         0.60592
C         30.66493        23.17097        -1.52958
C         29.45018        22.52371        -1.81813
C         30.70369        24.66800        -1.68622
C         29.36269        25.33692        -1.41826
C         30.51895        27.42254        -0.72060
C         29.31994        26.70799        -1.01183
C         30.46072        28.68380        -0.10578
C         29.17825        29.13332         0.27563
C         30.40968        31.77395         0.04349
C         29.14838        31.26063         0.40979
C         30.41539        33.15247        -0.31080
C         29.18380        33.84179        -0.51614
C         30.41530        35.99037        -0.52412
C         29.19082        35.27739        -0.66175
C         30.41111        37.41387        -0.49424
C         29.18650        38.12940        -0.63075
C         30.40005        40.26502        -0.22791
C         29.17036        39.56805        -0.48421
C         30.38853        41.66399        -0.02234
C         29.13959        42.37507         0.04024
C         30.38032        44.49830         0.29157
C         29.10814        43.76313         0.29424
C         30.39419        45.93949         0.69486
C         29.11795        46.52546         1.17340
C         30.40188        48.76214         0.91828
C         29.13977        48.07601         1.27878
C         30.32950        50.16073         0.58625
C         29.06975        50.74473         0.39494
C         33.03659        20.33666        -0.94682
C         31.90822        21.03837        -1.29925
C         33.00936        23.14458        -0.69266
C         31.85590        22.45777        -1.18555
C         32.97027        24.59016        -0.56504
C         31.86038        25.30826        -0.96863
C         32.83245        27.35978         0.09826
C         31.88054        26.81761        -0.97822
C         32.88810        28.86670         0.03031
C         31.65425        29.54211         0.05035
C         32.86720        31.67192        -0.16706
C         31.63356        30.98100         0.04047
C         32.88775        33.12872        -0.27520
C         31.65985        33.85619        -0.34051
C         32.88407        35.98157        -0.29401
C         31.65455        35.27339        -0.40014
C         32.88193        37.40722        -0.24865
C         31.64711        38.12490        -0.31705
C         32.87753        40.23635        -0.04328
C         31.64034        39.53742        -0.19902
C         32.87676        41.64873         0.10307
C         31.63751        42.36845         0.15099
C         32.87201        44.49158         0.43815
C         31.64833        43.76023         0.32484
C         32.89222        45.90085         0.63223
C         31.67481        46.59682         1.18517
C         32.84085        48.78638         0.62685
C         31.62442        48.08451         0.88656
C         32.81740        50.21587         0.52220
C         31.57136        50.90711         0.48520
C         32.78122        53.02735         0.37958
C         31.59107        52.31860         0.39064
C         35.40570        18.83676        -0.12036
C         35.32773        20.22742        -0.00579
C         34.18656        20.98906        -0.42954
C         35.35640        23.11357         0.13919
C         34.17977        22.42026        -0.31013
C         35.36371        24.55492         0.19067
C         34.17106        25.27840        -0.09589
C         35.35845        27.38962         0.27040
C         34.16702        26.67652         0.05127
C         35.37564        28.83120         0.13017
C         34.11865        29.55549        -0.04211
C         35.36121        31.64709        -0.54779
C         34.08977        30.95761        -0.23260
C         35.38995        33.16421        -0.71043
C         34.09928        33.84003        -0.32170
C         35.36119        35.96708        -0.16848
C         34.11456        35.25862        -0.26491
C         35.35594        37.37845        -0.09195
C         34.11911        38.10410        -0.13662
C         35.35616        40.23629         0.00476
C         34.11710        39.52492        -0.05072
C         35.35205        41.65953         0.11325
C         34.11220        42.35712         0.18793
C         35.32845        44.49183         0.39683
C         34.10029        43.77563         0.33066
C         35.30366        45.90823         0.34590
C         34.09278        46.62451         0.47562
C         35.27240        48.82135         0.32564
C         34.07894        48.08785         0.48242
C         35.29090        50.24200         0.41110
C         34.04664        50.94691         0.46211
C         35.28944        53.09585         0.44190
C         34.03582        52.37156         0.42814
C         35.32603        54.51223         0.48174
C         37.79189        18.74752         0.46004
C         36.59751        18.12487         0.09967
C         37.75824        20.16029         0.86234
C         36.45505        20.93781         0.60919
C         37.74191        23.05193         0.83943
C         36.53692        22.40416         0.51191
C         37.71168        24.52238         1.15816
C         36.53194        25.25460         0.57047
C         37.79696        27.38158         0.72765
C         36.56580        26.67110         0.52783
C         37.81949        28.81434         0.52507
C         36.58803        29.50174         0.17548
C         37.85922        31.70344         0.03028
C         36.64298        30.91684        -0.24750
C         37.83333        33.08977         0.09003
C         36.61835        33.83894        -0.12559
C         37.83870        35.97420         0.12523
C         36.60635        35.23518        -0.05360
C         37.83961        37.37868         0.09800
C         36.59482        38.10900        -0.01222
C         37.86145        40.26695        -0.25387
C         36.58202        39.50999        -0.02408
C         37.84185        41.69250         0.23511
C         36.58715        42.39075         0.26876
C         37.80217        44.53138         0.84982
C         36.56203        43.78063         0.44300
C         37.83217        45.95311         0.35120
C         36.56488        46.60897         0.06292
C         37.80807        48.83996         0.23405
C         36.53954        48.13809         0.02516
C         37.78189        50.25670         0.35481
C         36.53254        50.95800         0.38376
C         37.77000        53.10680         0.45984
C         36.52821        52.38770         0.43191
C         37.76963        54.53063         0.50841
C         36.52049        55.20388         0.51666
C         40.30571        15.94781         0.28984
C         39.13333        16.65164         0.22473
C         40.20829        18.75625         0.93753
C         39.05662        18.05889         0.52858
C         40.23103        20.19903         1.05501
C         39.01469        20.92208         0.94537
C         40.22558        23.06402         1.08810
C         38.98226        22.34035         1.00234
C         40.22559        24.50759         0.99506
C         39.02168        25.23092         0.93598
C         40.26613        27.35865         0.92376
C         39.02167        26.65422         0.87342
C         40.22596        28.84372         1.19887
C         39.01196        29.51843         0.60751
C         40.20516        31.67939         0.94420
C         39.15699        30.93614         0.11230
C         40.27265        33.14159         0.58096
C         39.07197        33.83109         0.34010
C         40.29492        35.95829         0.48236
C         39.07047        35.25234         0.29121
C         40.29953        37.39823         0.44121
C         39.08330        38.10318         0.23361
C         40.30641        40.23422         0.27326
C         39.09717        39.51748         0.16007
C         40.30783        41.67108         0.29564
C         39.05730        42.38129         0.36865
C         40.27852        44.51630         0.53585
C         39.08502        43.80707         0.54976
C         40.28215        45.97552         0.51236
C         39.02192        46.67043         0.33324
C         40.25866        48.82593         0.34588
C         39.01954        48.11825         0.25945
C         40.25327        50.25459         0.36675
C         39.01856        50.96888         0.39221
C         40.25021        53.10226         0.45427
C         39.01480        52.39589         0.44070
C         40.24978        54.53374         0.50670
C         39.02179        55.25162         0.54371
C         40.25862        57.35646         0.63869
C         39.06342        56.67382         0.61304
C         42.73274        15.92043         0.77430
C         41.50661        16.57574         0.73734
C         42.74651        18.70619         1.44358
C         41.42451        17.96674         1.20046
C         42.70755        20.20319         1.50480
C         41.44460        20.92558         1.26251
C         42.71823        23.07887         1.15456
C         41.45479        22.34781         1.19743
C         42.68513        24.50897         1.08259
C         41.47791        25.22085         0.98354
C         42.73666        27.40635         0.92458
C         41.47903        26.66825         0.95900
C         42.74456        28.83131         0.84073
C         41.51935        29.57003         0.89977
C         42.75444        31.68880         0.73822
C         41.52582        30.95511         0.84985
C         42.75695        33.10262         0.72986
C         41.50153        33.83706         0.68974
C         42.76565        35.97264         1.02927
C         41.50046        35.24574         0.66632
C         42.77488        37.41816         0.61900
C         41.53790        38.11039         0.49890
C         42.77436        40.24400         0.40219
C         41.54408        39.52993         0.39181
C         42.76989        41.66997         0.36830
C         41.52820        42.37793         0.36167
C         42.75278        44.50606         0.50868
C         41.53892        43.81092         0.45490
C         42.76419        45.96787         0.87224
C         41.47771        46.68166         0.53443
C         42.72791        48.81825         0.38139
C         41.48967        48.11280         0.42625
C         42.72703        50.24444         0.33746
C         41.49166        50.96377         0.37979
C         42.73155        53.09765         0.40151
C         41.49054        52.39015         0.41236
C         42.73566        54.52951         0.46107
C         41.49438        55.23823         0.52205
C         42.73754        57.35366         0.60191
C         41.49702        56.65931         0.58879
C         43.94468        16.62521         0.93658
C         45.19463        18.77925         0.80907
C         43.99283        18.00777         1.10487
C         45.17913        20.16955         0.80687
C         44.00998        20.94153         1.27316
C         45.19849        23.06462         0.82056
C         43.95225        22.39404         1.03446
C         45.25640        24.50994         1.08118
C         43.94476        25.26353         1.21545
C         45.20367        27.39180         0.80976
C         43.96390        26.71348         0.95813
C         45.21254        28.81339         0.68556
C         43.98087        29.53507         0.72839
C         45.21943        31.66544         0.52790
C         43.99112        30.96371         0.66672
C         45.23000        33.09636         0.46664
C         43.99555        33.81879         0.61520
C         45.22837        35.94281         0.47746
C         44.01607        35.22965         0.64123
C         45.24213        37.37646         0.47049
C         43.99463        38.10333         0.52190
C         45.24142        40.24102         0.39864
C         44.01134        39.53482         0.42881
C         45.23663        41.67349         0.37669
C         43.99601        42.38458         0.37375
C         45.22554        44.53096         0.35707
C         43.99302        43.81155         0.42315
C         45.20543        45.96789         0.25219
C         44.00129        46.68750         0.40367
C         45.19186        48.81535         0.09256
C         43.97193        48.09731         0.29732
C         45.19304        50.24165         0.12870
C         43.96106        50.95809         0.26843
C         45.20386        53.10033         0.27583
C         43.96206        52.38404         0.31478
C         45.21118        54.52201         0.36013
C         43.96431        55.24616         0.45747
C         43.92951        56.66757         0.53614
C         47.57733        18.73359         0.17801
C         46.43629        18.08854         0.52274
C         47.58056        20.17332        -0.11336
C         46.30825        20.92583         0.23565
C         47.63034        23.08113         0.34689
C         46.36813        22.38854         0.46507
C         47.65678        24.52392         0.46875
C         46.47011        25.25097         0.71773
C         47.67177        27.37541         0.50086
C         46.44886        26.66557         0.70142
C         47.67897        28.80324         0.45621
C         46.44669        29.52115         0.53780
C         47.68501        31.64754         0.31486
C         46.45199        30.94296         0.45761
C         47.69216        33.07334         0.19811
C         46.44501        33.79934         0.28489
C         47.66186        35.95082         0.08088
C         46.45358        35.23079         0.26542
C         47.68897        37.35620         0.15905
C         46.46069        38.07561         0.32812
C         47.70994        40.20046         0.31254
C         46.48151        39.51456         0.34238
C         47.71024        41.65539         0.52797
C         46.45189        42.40006         0.40354
C         47.69509        44.53425         0.09328
C         46.45996        43.81725         0.32823
C         47.62330        45.93019        -0.19316
C         46.42173        46.66095        -0.06211
C         47.60878        48.83450        -0.32172
C         46.41045        48.10389        -0.12985
C         47.64125        50.24149        -0.16690
C         46.42447        50.95384         0.04428
C         47.67228        53.08424         0.09973
C         46.43512        52.38385         0.14253
C         47.64853        54.49755         0.20847
C         46.46146        55.19092         0.33227
C         50.09257        20.24790         0.32898
C         48.89834        20.93007        -0.28923
C         50.08704        23.08344         0.20010
C         48.83733        22.38854         0.14427
C         50.11235        24.51207         0.24455
C         48.88631        25.23202         0.33717
C         50.13400        27.36271         0.26286
C         48.89529        26.65810         0.36917
C         50.14214        28.78811         0.23700
C         48.90919        29.50492         0.31359
C         50.14802        31.63796         0.12689
C         48.91473        30.93253         0.25158
C         50.14495        33.06234         0.01951
C         48.90699        33.75923         0.02080
C         50.17583        35.93682        -0.10219
C         48.88709        35.21031        -0.37701
C         50.16435        37.35764        -0.05867
C         48.93434        38.08147         0.04647
C         50.17744        40.22566        -0.05930
C         48.94707        39.50386         0.13059
C         50.21589        41.66324        -0.07867
C         49.02338        42.42758         0.32787
C         50.14221        44.52351        -0.39118
C         48.93704        43.85317        -0.01168
C         50.12497        45.92302        -0.63025
C         48.82824        46.60381        -0.68566
C         50.12698        48.82005        -0.68905
C         48.82694        48.13700        -0.75085
C         50.12514        50.23372        -0.45144
C         48.89618        50.94684        -0.24189
C         50.16541        53.02473        -0.06007
C         48.91221        52.35486        -0.06593
C         51.24413        20.93034         0.49605
C         52.55564        23.05631         0.25580
C         51.31442        22.36217         0.27084
C         52.57919        24.48619         0.19959
C         51.35195        25.21153         0.21526
C         52.60001        27.34469         0.13269
C         51.36279        26.64219         0.20112
C         52.60842        28.77302         0.08318
C         51.37686        29.49427         0.12825
C         52.61453        31.63245        -0.02790
C         51.38215        30.92207         0.07681
C         52.61421        33.06563        -0.06533
C         51.38560        33.77643        -0.06766
C         52.63674        35.92887        -0.11340
C         51.38748        35.22046        -0.09666
C         52.63247        37.35483        -0.18083
C         51.39947        38.07178        -0.12848
C         52.62320        40.18272        -0.45612
C         51.39090        39.49246        -0.23592
C         52.56484        41.60760        -0.94541
C         51.36564        42.37092        -0.44524
C         52.56246        44.51254        -0.91286
C         51.36976        43.79746        -0.54642
C         52.53112        45.91092        -1.04937
C         51.31291        46.63912        -0.89452
C         52.57803        48.80551        -0.89866
C         51.31529        48.09654        -0.88398
C         52.58908        50.21410        -0.66606
C         51.36139        50.93420        -0.44430
C         51.34654        52.33901        -0.23062
C         54.99819        23.03982         0.23579
C         53.80483        22.36319         0.26767
C         55.05134        24.46576         0.19090
C         53.82423        25.18869         0.16933
C         55.06700        27.32601         0.07471
C         53.83257        26.62142         0.12059
C         55.07847        28.75716         0.00278
C         53.84351        29.47871        -0.00474
C         55.07690        31.61773        -0.17194
C         53.84536        30.90788        -0.07456
C         55.06286        33.03633        -0.15340
C         53.86379        33.77346        -0.08872
C         55.09007        35.96057        -0.18624
C         53.87278        35.22375        -0.10398
C         55.09799        37.36141        -0.33151
C         53.86019        38.07315        -0.28607
C         55.12605        40.25092        -0.28323
C         53.82826        39.49812        -0.41436
C         55.07582        41.68237        -0.76730
C         53.86066        42.37061        -0.82656
C         55.04428        44.47835        -1.19588
C         53.83050        43.78093        -1.01689
C         55.03057        45.91307        -1.55911
C         53.70323        46.67330        -1.62900
C         55.03069        48.80533        -1.08302
C         53.79468        48.10939        -1.12812
C         55.01117        50.21310        -0.86138
C         53.83406        50.89433        -0.67711
C         57.55196        24.49068         0.21482
C         56.29991        25.17575         0.16862
C         57.53815        27.31291         0.06958
C         56.29990        26.60006         0.10178
C         57.55260        28.74054        -0.01854
C         56.31509        29.46149        -0.05947
C         57.56274        31.56338        -0.30054
C         56.32916        30.88850        -0.18402
C         57.55296        33.02207        -0.68718
C         56.35935        33.74657        -0.10944
C         57.61991        35.93921        -0.53022
C         56.37649        35.24363        -0.12729
C         57.59750        37.33508        -0.75024
C         56.34192        38.08288        -0.62125
C         57.51321        40.21455        -1.16482
C         56.31755        39.45611        -0.76325
C         57.54753        41.67846        -0.97213
C         56.30040        42.38811        -0.91126
C         57.54418        44.51468        -1.07014
C         56.28793        43.79878        -1.09915
C         57.55615        45.92826        -1.07395
C         56.32996        46.67223        -1.40674
C         57.52905        48.76938        -0.92914
C         56.30133        48.12451        -1.17043
C         58.74308        25.17387         0.19636
C         59.99221        27.31014         0.09640
C         58.76683        26.59664         0.12117
C         60.00291        28.68711         0.01171
C         58.79588        29.43210        -0.05394
C         60.00134        31.62202        -0.18015
C         58.80040        30.87405        -0.19128
C         60.00669        33.02547        -0.25307
C         58.84343        33.75998        -0.43674
C         60.04034        35.91175        -0.79841
C         58.83625        35.20551        -0.57536
C         60.03089        37.28489        -0.98074
C         58.82624        38.01008        -0.97869
C         60.05297        40.26042        -1.01831
C         58.84132        39.46364        -1.25400
C         60.00796        41.61325        -0.94765
C         58.76858        42.36271        -0.97964
C         59.97615        44.54683        -0.75254
C         58.77455        43.80548        -0.92288
C         59.97075        45.92373        -0.69920
C         58.75803        46.64683        -0.86612
C         58.72718        48.07172        -0.83032
O         36.51979        47.34299        -1.21159
O         36.11641        31.01921        -1.65157
O         26.43064        30.07874         1.06119
O         48.53361        42.08821         1.67023
O         44.72577        24.88048         2.40363
O         30.38247        45.62700        -0.71886
O         48.62379        47.32571        -1.95294
O         46.61875        20.53931        -1.16727
O         29.21563        47.19894         2.46298
O         26.83369        39.00970        -2.30368
O         58.08889        39.81627        -2.46110
O         36.81130        20.44595         1.94495
O         56.57908        34.46768         1.13545
O         25.09996        29.41419        -2.14225
O         41.98855        18.13192         2.54828
O         43.51999        20.65461         2.63796
O         29.11272        30.13952         1.23968
O         26.78598        34.37998        -2.28065
O         55.82768        46.22182        -2.75313
O         25.74833        45.80844         2.22376
O         39.73074        31.63975         2.31626
H         40.43701        31.98984         2.89756
O         40.05029        28.92181         2.66343
H         40.70194        28.31216         3.07083
O         57.33397        33.05587        -2.14511
H         58.07429        32.56956        -2.56598
O         35.48127        33.43261        -2.14914
H         35.98105        32.67501        -2.53685
O         31.76270        46.41776         2.62669
H         30.94394        46.81329         3.01671
O         37.71941        44.61862         2.32753
H         38.53977        45.05779         2.63842
O         53.36567        46.80163        -3.04574
H         54.22566        46.85922        -3.52701
O         39.68695        30.85028        -1.24905
H         38.96803        30.52267        -1.83062
O         49.15390        20.96478        -1.72873
H         48.27417        21.07610        -2.15789
O         30.96840        24.90619        -3.12754
H         31.40062        25.79200        -3.19606
O         55.33442        40.38695         1.17708
H         55.30016        39.48506         1.56281
O         42.84792        45.99839         2.35125
H         42.11738        45.44138         2.69513
O         37.50393        24.58219         2.63086
H         36.80115        23.93374         2.85215
O         32.22594        26.98551         1.36960
H         32.82191        27.28262         2.08837
O         26.67688        48.12183         3.05507
H         26.16639        47.35734         3.40826
O         52.34959        41.46988        -2.40110
H         52.29819        42.37487        -2.77745
O         37.95424        40.38399        -1.73313
H         38.79167        40.85462        -1.93424
O         42.77341        35.99736         2.51526
H         43.57823        36.48658         2.79076
O         48.77599        35.19160        -1.86065
H         49.57201        34.73100        -2.20309
O         32.32981        27.23316        -2.30129
H         32.34460        28.21433        -2.32235
H         22.19559        26.72946        -1.19572
H         22.05362        29.13258        -0.76723
H         22.04492        31.15849        -0.78144
H         22.03604        33.60028        -0.83789
H         22.04590        35.50290        -0.90673
H         22.05150        37.92427        -0.98647
H         22.05900        39.84357        -1.15292
H         22.05916        42.25986        -0.85811
H         22.14754        44.23053        -0.85900
H         22.20393        46.65330        -0.41149
H         25.64749        23.53693        -2.00236
H         23.50135        24.70698        -1.78349
H         25.24967        49.75794         1.45410
H         23.30766        48.63593         0.55322
H         27.34372        22.65677        -2.15906
H         26.91244        50.56344         0.43432
H         29.40906        21.42790        -1.89010
H         28.99624        51.79648         0.08750
H         33.03194        19.24520        -1.06211
H         31.04780        20.48573        -1.69752
H         32.73387        54.12331         0.32917
H         30.64571        52.87729         0.35698
H         34.54090        18.26504        -0.48196
H         34.38978        55.08583         0.49348
H         36.57968        17.04597        -0.10319
H         36.48589        56.30063         0.55051
H         40.33266        14.88590         0.00598
H         38.22647        16.12882        -0.10472
H         40.26598        58.45464         0.69355
H         38.12884        57.24888         0.64949
H         42.77510        14.84937         0.52919
H         42.73485        58.45172         0.65939
H         44.87209        16.05677         0.78631
H         44.86652        57.23978         0.54276
H         48.50757        18.15751         0.08191
H         46.48287        17.00289         0.67915
H         48.58459        55.07033         0.18260
H         46.50283        56.28570         0.40232
H         50.06985        19.16973         0.53733
H         50.20973        54.11082         0.09184
H         52.13472        20.40315         0.86682
H         52.28533        52.90681        -0.20930
H         55.92906        22.45776         0.23927
H         53.81825        21.26530         0.28636
H         55.94955        50.78114        -0.85652
H         53.87587        51.98058        -0.52876
H         57.57446        23.39453         0.27118
H         57.56169        49.85931        -0.80049
H         59.69586        24.62648         0.23685
H         60.93854        26.75211         0.14046
H         60.97032        29.20586        -0.01305
H         60.96475        31.11292        -0.05008
H         60.97103        33.53965        -0.13416
H         60.99567        35.37381        -0.85605
H         60.98128        37.80102        -1.17126
H         61.01376        39.74757        -0.87053
H         60.95160        42.15556        -0.80237
H         60.93384        44.02310        -0.63683
H         60.90870        46.47632        -0.54674
H         59.66498        48.62053        -0.66587
