         230
 CSIRO Nanostructure Databank - Neutral Graphene Oxide Data Set
C        -11.22123         0.72429        -0.84182
C         -9.95551         1.42468        -0.85837
C         -8.74656         0.63001        -1.00136
C         -7.46412         1.30678        -0.69230
C         -6.14265         0.62613        -0.97606
C         -4.92299         1.46843        -0.80686
C         -3.69656         1.17444        -1.32499
C         -2.42756         1.59301        -0.75568
C         -1.18225         0.81827        -1.09868
C          0.09128         1.35807        -0.54750
C          1.29977         0.67502        -0.64192
C          2.55618         1.34955        -0.36146
C          3.75748         0.67262        -0.51561
C          5.01177         1.44042        -0.70244
C          6.29579         0.73771        -0.99910
C          7.62297         1.50951        -0.96773
C          8.77219         0.73108        -0.37533
C          9.91413         1.38927        -0.02683
C         11.09412         0.64145         0.37186
C         -9.94844         2.78830        -0.64469
C         -8.71894         3.58567        -0.58983
C         -7.39891         2.80173        -0.58041
C         -6.23879         3.41929         0.06827
C         -5.02178         2.57641         0.17750
C         -3.73603         3.23402         0.58250
C         -2.44859         2.66327         0.11094
C         -1.19846         3.27883         0.62189
C          0.09473         2.62315         0.22722
C          1.31414         3.44882         0.24024
C          2.56140         2.78705        -0.08861
C          3.74435         3.48494        -0.05156
C          5.06147         2.77290        -0.01458
C          6.29284         3.60314        -0.28750
C          7.52719         2.91911        -0.40017
C          8.72261         3.62873        -0.14200
C         10.04591         2.89499        -0.14962
C         -8.68232         4.91964        -0.01165
C         -7.47778         5.53540         0.30574
C         -6.23306         4.77570         0.38457
C         -5.03074         5.45156         0.85326
C         -3.78179         4.65876         1.06766
C         -2.47244         5.38162         1.27410
C         -1.18295         4.72983         0.91988
C          0.00436         5.42813         0.95234
C          1.26084         4.77196         0.65549
C          2.51070         5.56234         0.73442
C          3.78592         4.90117         0.34069
C          4.90792         5.68409        -0.30762
C          6.24769         4.99308        -0.11191
C          7.45732         5.73118         0.10091
C          8.68057         4.99037         0.15253
C         -7.44324         6.93965         0.59037
C         -6.25311         7.59224         0.85337
C         -5.03598         6.82937         1.03818
C         -3.79961         7.59746         1.32763
C         -2.48750         6.87814         1.37618
C         -1.25857         7.58627         0.84604
C          0.00500         6.89226         1.38598
C          1.24004         7.67991         0.99047
C          2.44967         7.04256         0.71302
C          3.63464         7.79280         0.51009
C          4.88477         7.17000         0.02632
C          6.19434         7.90495         0.27588
C          7.42979         7.12003         0.35083
C         -6.20719         9.03991         0.90420
C         -5.03488         9.73575         0.95409
C         -3.76701         9.06100         1.06010
C         -2.56725         9.74082         1.06267
C         -1.28545         9.07980         1.09732
C         -0.09960         9.76523         1.18596
C          1.18628         9.10086         1.06062
C          2.39077         9.82580         1.02486
C          3.62444         9.18241         0.79213
C          4.88983         9.87125         0.99288
C          6.08835         9.24291         0.88540
C        -11.24591        -0.62722        -0.77389
C        -10.04567        -1.44233        -0.83266
C         -8.76398        -0.76944        -1.11854
C         -7.49812        -1.48402        -1.33866
C         -6.23019        -0.73635        -1.61038
C         -4.97527        -1.58087        -2.00534
C         -3.64352        -0.93918        -2.03886
C         -2.46212        -1.49228        -1.66265
C         -1.19537        -0.66074        -1.56527
C          0.12053        -1.46814        -1.49905
C          1.33313        -0.74333        -0.90233
C          2.51399        -1.43657        -0.68352
C          3.79407        -0.75356        -0.68373
C          4.99988        -1.43387        -0.87223
C          6.27764        -0.74314        -0.85179
C          7.43061        -1.41979        -0.53275
C          8.79349        -0.75958        -0.64905
C          9.91278        -1.48704         0.07091
C         11.09341        -0.71706         0.41309
C        -10.19911        -2.74838        -0.39374
C         -9.18267        -3.74781        -0.60778
C         -7.41570        -2.85275        -1.57770
C         -6.20408        -3.63771        -1.44572
C         -4.99984        -3.01548        -1.68124
C         -3.71627        -3.82070        -1.80344
C         -2.42704        -2.98836        -1.71815
C         -1.16455        -3.68418        -1.38302
C         -0.08796        -2.80594        -0.76669
C          1.21178        -3.60751        -0.65059
C          2.51326        -2.90510        -0.50408
C          3.84650        -3.64534        -0.44899
C          4.99953        -2.91771        -1.19750
C          6.23850        -3.63031        -0.75459
C          7.35446        -2.86879        -0.22222
C          8.61171        -3.59844         0.18312
C          9.87045        -2.82986         0.28455
C         -8.67772        -4.71296         0.20363
C         -7.52217        -5.56778        -0.17448
C         -6.28667        -5.06220        -0.97619
C         -4.96561        -5.75435        -0.69373
C         -3.68880        -5.02235        -0.86981
C         -2.46756        -5.65768        -0.53560
C         -1.19731        -5.10062        -0.92132
C          0.00547        -5.78974        -0.76531
C          1.19388        -4.97847        -1.30160
C          2.54677        -5.61849        -1.27332
C          3.74605        -5.07684        -0.93734
C          4.99976        -5.88584        -0.93637
C          6.34604        -5.10845        -1.02446
C          7.49416        -5.77496        -0.27474
C          8.61156        -5.06878         0.08199
C         -7.34903        -6.71770         0.74202
C         -6.17556        -7.37404         0.93630
C         -4.93366        -6.93846         0.24515
C         -3.65732        -7.20777         1.02553
C         -2.41560        -6.85023         0.25355
C         -1.20080        -7.52134         0.48537
C          0.03115        -7.07210        -0.11070
C          1.23063        -7.83211         0.15567
C          2.47552        -7.60877        -0.49692
C          3.70799        -7.95871         0.05778
C          4.97674        -7.33646        -0.40557
C          6.22854        -7.85921         0.19909
C          7.41196        -7.16171         0.11085
C         -6.08021        -8.51544         1.82766
C         -4.89219        -9.12011         2.10933
C         -3.63675        -8.59035         1.62990
C         -2.44408        -9.22449         1.83980
C         -1.19286        -8.69144         1.34945
C          0.00282        -9.28313         1.71884
C          1.24448        -8.83968         1.17446
C          2.47440        -9.40871         1.58524
C          3.70292        -8.93419         1.10205
C          4.96411        -9.49942         1.52420
C          6.15152        -9.02699         1.04557
O         -0.47882         2.44145         1.59150
O         -0.57004        -2.48070         0.55286
H          0.19627        -2.56667         1.17113
O         -5.85852        -0.95929        -2.99910
O         -0.07522         6.92777         2.82727
H          0.66352         6.39857         3.19303
O          5.20681         2.41055         1.41047
H          4.92641         3.18526         1.94707
O          3.50802         5.10844         1.76451
O          9.13695        -0.86821        -2.07503
H          8.77301        -0.06397        -2.52399
O         -3.66692         0.38441        -2.47120
O         -4.46039         2.32517         1.50039
O          0.94257        -4.72243        -2.70657
H          1.05200        -5.56902        -3.18900
O         10.91236         3.41690         0.86440
H         10.47809         3.29301         1.73293
O          4.27954        -3.66085         0.92921
H          3.48316        -3.80242         1.48934
O          4.80092        -3.08249        -2.62316
H          5.45801        -3.74619        -2.94605
O         -7.30742        -5.88141        -1.58633
O          5.52117         7.90787        -1.06902
O          6.70483        -5.18143        -2.45470
H          6.42287        -6.07947        -2.75779
O         -3.79303        -4.38672        -3.13904
H         -2.86927        -4.40056        -3.49218
O          0.51729        -1.73794        -2.85436
H          0.24513        -0.97041        -3.40340
O         -3.08320         7.33559         2.60348
O         -3.72438        -6.27115         2.15786
H         -2.94226        -6.43343         2.72668
O          7.99885         1.68539        -2.38008
H          7.16187         1.89949        -2.85808
O         -1.47749        -3.42058        -2.77819
O         -6.76181         0.58364         0.36745
O         -1.29720         7.38853        -0.59449
H         -0.58247         7.92744        -0.99512
O          4.61073         5.58039        -1.73152
H          5.10701         6.31299        -2.16675
O          5.46978         1.30604        -2.08482
O          5.03629        -7.02561        -1.83914
O          2.47726        -6.94306        -1.74104
O         -4.88264        -7.15872        -1.17847
O         -7.85464         3.46000        -1.79528
O         -3.17657         4.76389         2.39633
O          7.65020        -3.16234         1.23809
O         -8.56475        -3.58057        -1.86453
O          1.74715        -3.44557         0.68873
O         -1.07326         0.42699        -2.52139
H         11.98037        -1.26221         0.77007
H         11.98921         1.21186         0.65799
H         10.55773         3.09568        -1.13155
H          9.61755         5.51827         0.38328
H          8.35981         7.63212         0.63812
H          7.01334         9.75250         1.19391
H          4.84775        10.90267         1.37426
H          2.37196        10.91339         1.18965
H         -0.10776        10.85922         1.30804
H         -2.57737        10.84089         1.00539
H         -5.04263        10.83489         0.90794
H         -7.16101         9.58131         0.81868
H         -8.37264         7.51957         0.48896
H         -9.62755         5.46269         0.13782
H        -10.90449         3.30171        -0.46125
H        -12.15037         1.31033        -0.80448
H        -12.20652        -1.15367        -0.67423
H        -11.15607        -3.03603         0.06979
H         -9.10108        -4.86353         1.20645
H         -8.23706        -7.03708         1.31049
H         -7.01588        -8.91934         2.24215
H         -4.86938       -10.02966         2.72825
H         -2.42114       -10.18776         2.37276
H          0.00071       -10.12243         2.42978
H          2.46450       -10.21037         2.33783
H          4.94965       -10.33769         2.23530
H          7.09765        -9.46643         1.39506
H          8.29884        -7.58621         0.60915
H          9.47548        -5.60818         0.50396
H         10.75310        -3.34868         0.69255
