         762
 CSIRO Nanostructure Databank - Neutral Graphene Oxide Data Set
C         22.83031        24.54324        -1.69377
C         21.66194        25.27863        -1.99595
C         22.94631        27.36812        -1.94354
C         21.70259        26.64086        -2.16754
C         22.89944        28.90027        -1.66169
C         21.64174        29.64987        -1.55637
C         22.86771        31.62909        -0.73557
C         21.65355        30.92612        -1.07879
C         22.75052        33.09348        -0.30960
C         21.70345        33.91147        -1.02789
C         23.09834        36.00511        -1.02404
C         21.82295        35.22890        -1.23748
C         22.96072        37.39078        -0.40863
C         21.75996        38.11259        -0.45359
C         22.88668        40.14449         0.30551
C         21.72624        39.46499        -0.12418
C         22.93817        41.60919         0.41281
C         21.88278        42.36092        -0.13433
C         23.08959        44.43913         0.22247
C         21.95703        43.74145        -0.22300
C         23.03364        45.96618         0.19762
C         22.28882        46.52095        -0.98417
C         23.74553        48.45934        -1.08176
C         22.63779        47.71335        -1.55150
C         25.38305        23.08383        -1.70452
C         25.30493        24.40541        -1.35226
C         24.07092        25.18033        -1.49385
C         25.36975        27.28099        -1.25476
C         24.13089        26.60024        -1.52514
C         25.35404        28.78304        -1.20092
C         24.03347        29.41412        -0.79221
C         25.30031        31.56653        -0.24155
C         24.07076        30.93365        -0.65432
C         25.22991        32.99389         0.17704
C         24.08120        33.80874        -0.27562
C         25.41475        35.87393        -0.06477
C         24.17170        35.17341        -0.35211
C         25.39445        37.31686         0.10271
C         24.11950        38.03403         0.08093
C         25.19803        40.02632         1.21251
C         24.06835        39.39508         0.48389
C         25.17152        41.51603         1.55295
C         24.07182        42.30099         0.92270
C         25.21815        44.48021         1.53765
C         24.14562        43.71522         0.82665
C         25.29559        45.98423         1.32697
C         24.37429        46.63102         0.38422
C         25.76547        48.70725         0.38415
C         24.61594        47.92434        -0.10530
C         25.90476        50.07805         0.09555
C         27.83912        23.02534        -1.55788
C         26.63196        22.38595        -1.73996
C         27.86068        24.43220        -1.23808
C         26.54337        25.08203        -0.80918
C         27.79377        27.25099        -0.66699
C         26.53167        26.57268        -1.03844
C         27.80429        28.73291        -0.49398
C         26.58809        29.52282        -0.82599
C         27.80082        31.52503         0.02483
C         26.53722        30.90876        -0.28695
C         27.80025        32.92221         0.53514
C         26.51878        33.70675         0.48578
C         27.86000        35.83363         0.17236
C         26.57005        35.15311         0.22083
C         27.85191        37.37297         0.28758
C         26.54647        37.99579         0.46420
C         27.80541        40.05085         1.33395
C         26.50548        39.29208         1.17266
C         27.77724        41.52377         1.64911
C         26.46932        42.23419         1.89661
C         27.79337        44.42986         1.84352
C         26.43869        43.76285         2.15937
C         27.83097        45.91443         1.98084
C         26.56793        46.70704         1.66931
C         27.90984        48.80150         1.58575
C         26.74286        48.09130         1.19367
C         27.97278        50.20533         1.37114
C         26.95896        50.82212         0.62632
C         30.34331        20.25756        -1.07065
C         29.16063        20.88209        -1.26522
C         30.38992        23.01215        -1.56973
C         29.11643        22.26052        -1.86654
C         30.32812        24.50098        -1.74841
C         29.05006        25.14989        -1.22823
C         30.25263        27.30804        -0.87184
C         29.07569        26.56108        -0.92153
C         30.25602        28.72341        -0.61536
C         29.08275        29.46064        -0.48347
C         30.31544        31.55958        -0.02439
C         29.03650        30.86675        -0.16998
C         30.36302        32.97081         0.32321
C         29.09522        33.67193         0.63258
C         30.27787        35.86765         0.66975
C         29.10451        35.15168         0.52953
C         30.30970        37.31350         0.72684
C         29.09886        38.04992         0.69300
C         30.31396        40.17392         1.04575
C         29.08839        39.43065         0.93967
C         30.28296        41.55259         1.27486
C         28.97152        42.32063         1.14867
C         30.21792        44.51346         1.21476
C         28.95849        43.76044         1.61982
C         30.30568        45.94589         1.67228
C         29.10381        46.64945         1.83245
C         30.36437        48.73827         2.07889
C         29.11207        48.06111         1.91997
C         30.33149        50.17959         2.41033
C         29.07962        50.95884         2.01179
C         30.34716        53.09050         2.12506
C         29.22557        52.41440         1.81019
C         32.89304        18.78080        -1.16868
C         32.81620        20.19118        -1.36740
C         31.61450        20.90780        -1.33865
C         32.88786        23.07722        -1.57894
C         31.60240        22.35379        -1.50867
C         32.88801        24.50681        -1.54420
C         31.58824        25.15500        -1.23072
C         32.76326        27.37877        -1.45055
C         31.56494        26.60650        -0.93566
C         32.82885        28.76904        -0.85821
C         31.54154        29.43168        -0.47138
C         32.80952        31.53286        -0.06820
C         31.49927        30.88763        -0.27336
C         32.84084        32.96941         0.39155
C         31.53884        33.65729         0.48261
C         32.82380        35.86071         0.74501
C         31.53281        35.09855         0.83315
C         32.77069        37.33627         0.70211
C         31.54692        38.03398         0.87370
C         32.82633        40.16583         0.94846
C         31.57661        39.45918         0.95829
C         32.81529        41.61321         0.99470
C         31.55544        42.26902         1.43032
C         32.76283        44.52391         1.28004
C         31.50992        43.77431         1.52155
C         32.76252        45.92353         1.44115
C         31.55065        46.64098         1.69876
C         32.88533        48.70712         2.38947
C         31.57048        48.04450         1.99643
C         32.90302        50.23032         2.36514
C         31.62252        50.92580         2.64611
C         32.88737        53.20183         2.54684
C         31.58102        52.44978         2.63439
C         32.93634        54.60861         2.12136
C         35.34510        18.79718        -0.92236
C         34.08917        18.13087        -0.94230
C         35.41215        20.16743        -1.45119
C         34.07734        20.90268        -1.65884
C         35.39126        23.04948        -1.75711
C         34.08830        22.36686        -1.64325
C         35.38336        24.57241        -1.64975
C         34.08542        25.25536        -1.47801
C         35.30750        27.38857        -1.13006
C         34.08768        26.65809        -1.29344
C         35.32446        28.81318        -1.02534
C         34.03574        29.56619        -1.31493
C         35.30082        31.73085        -0.61508
C         34.01488        31.00826        -0.80223
C         35.30059        33.10341        -0.05193
C         34.08103        33.75886         0.20460
C         35.22712        35.89529         0.08574
C         34.05814        35.15784         0.32329
C         35.04371        37.35959        -0.22848
C         33.96682        38.04028         0.56083
C         35.40655        39.97464         0.90772
C         34.04540        39.42304         0.80820
C         35.10715        42.02536        -0.21251
C         33.92502        42.41880         0.66662
C         35.25677        44.44161         1.32635
C         33.93447        43.80567         0.97242
C         35.29405        45.93993         1.05287
C         34.00173        46.69088         1.19922
C         35.37359        48.77964         1.83645
C         34.05316        48.13293         1.60758
C         35.36442        50.20672         2.03458
C         34.10718        50.90838         2.24247
C         35.37785        53.10781         1.89441
C         34.17456        52.39396         2.38281
C         35.37202        54.53009         1.76213
C         34.11913        55.23191         1.86103
C         37.62696        16.28758         0.62405
C         36.49001        16.89526         0.16822
C         37.80643        18.83829        -0.58538
C         36.52711        18.18711        -0.44067
C         37.85654        20.25092        -0.93999
C         36.64808        20.95451        -1.22300
C         37.84085        23.09946        -1.14934
C         36.64492        22.34848        -1.37654
C         37.83001        24.54410        -1.08525
C         36.61034        25.26538        -1.21925
C         37.78539        27.39078        -0.89076
C         36.55871        26.66531        -1.03439
C         37.75962        28.80487        -0.87503
C         36.54245        29.52459        -0.91057
C         37.74671        31.66011        -0.48502
C         36.58180        30.99173        -0.72835
C         37.79275        33.05963         0.10553
C         36.50633        33.82829        -0.06072
C         37.70325        36.05331         0.19290
C         36.46271        35.22946        -0.03816
C         37.61882        37.41312        -0.50562
C         36.32537        38.15610        -0.43042
C         37.68843        40.31416        -0.12519
C         36.43559        39.56009         0.05600
C         37.71122        41.72985         0.05824
C         36.47095        42.50392         0.24751
C         37.80580        44.35488         1.20283
C         36.50688        43.74050         0.82488
C         37.80012        45.78926         1.67508
C         36.57769        46.62904         1.40309
C         37.82597        48.75220         2.07324
C         36.55112        48.05835         1.79375
C         37.85351        50.21414         1.86848
C         36.58565        50.92381         1.91212
C         37.81131        53.05784         1.53509
C         36.55767        52.34082         1.77296
C         37.68172        54.39361         0.88149
C         36.55909        55.23776         1.32872
C         37.92828        57.20447         0.70032
C         36.70572        56.60778         1.13262
C         39.98950        15.18796         1.86724
C         40.08354        16.25747         0.94615
C         38.91833        16.87403         0.42422
C         40.28520        18.70798        -0.63459
C         38.97782        18.13617        -0.25323
C         40.34031        20.19316        -0.94339
C         39.07488        20.96781        -0.91305
C         40.28486        23.13626        -0.75549
C         39.06922        22.39198        -0.96021
C         40.26683        24.51971        -0.63902
C         39.04199        25.26083        -0.80580
C         40.25674        27.45075        -0.66033
C         39.03407        26.68833        -0.78550
C         40.29517        28.82849        -0.82191
C         39.02536        29.56647        -1.16029
C         40.23578        31.78050        -1.03261
C         39.06344        30.93691        -0.47237
C         40.23800        33.20304        -0.49335
C         39.05809        33.83842        -0.21373
C         40.26815        36.05635        -0.44968
C         39.03998        35.30660         0.00520
C         40.14181        37.44861        -0.97324
C         38.86963        38.19986        -0.77681
C         40.11878        40.37321        -0.64388
C         38.89257        39.66378        -0.54017
C         40.16122        41.73833        -0.28770
C         38.96501        42.41422         0.08845
C         40.21097        44.51442         0.52948
C         39.04128        43.78120         0.59638
C         40.33120        45.82974         1.20020
C         39.11779        46.49616         1.76799
C         40.36487        48.71409         1.62581
C         39.13934        47.98037         1.97619
C         40.32773        50.09755         1.60984
C         39.08965        50.84012         1.71189
C         40.22123        52.85775         0.70460
C         39.11486        52.31100         1.49513
C         40.10582        54.15906         0.04630
C         38.90199        55.01799         0.27870
C         40.38349        57.07973         0.09331
C         39.06007        56.48592         0.33168
C         40.60107        58.46014         0.30925
C         42.34762        15.38851         2.43176
C         41.09920        14.72843         2.55384
C         42.54165        16.40794         1.51963
C         41.47228        16.61434         0.44758
C         42.85705        18.74136        -0.23035
C         41.56177        17.97932        -0.26384
C         42.90352        20.21906        -0.43653
C         41.64860        20.92825        -0.84212
C         42.79800        23.11368        -0.17406
C         41.59074        22.41865        -0.72766
C         42.82126        24.57877        -0.26388
C         41.50342        25.24493        -0.24814
C         42.78463        27.45177        -0.35792
C         41.49237        26.75146        -0.25844
C         42.76815        28.86702        -0.50427
C         41.51643        29.59186        -0.69456
C         42.70366        31.76099        -0.57633
C         41.51440        31.00322        -0.76405
C         42.71612        33.17262        -0.57757
C         41.50125        33.92895        -0.60836
C         42.69716        36.10220        -1.01151
C         41.51048        35.32494        -0.74775
C         42.66084        37.46916        -1.26122
C         41.39119        38.21175        -1.27673
C         42.72033        40.38967        -1.02308
C         41.36441        39.72421        -1.18352
C         42.73935        41.83200        -0.65676
C         41.40165        42.52370        -0.53516
C         42.74098        44.74299        -0.13797
C         41.39843        43.99225        -0.18845
C         42.77621        45.85055         0.91469
C         41.54899        46.65497         1.02403
C         42.88793        48.70898         1.31703
C         41.60210        47.99457         1.34429
C         42.90321        50.13516         1.30090
C         41.60912        50.83468         1.50967
C         42.75905        52.92216         0.51502
C         41.51631        52.27342         1.01227
C         42.58203        53.97992        -0.51155
C         41.34967        54.82664        -0.46980
C         42.80716        56.86106        -0.41973
C         41.50958        56.28999        -0.29858
C         42.96593        58.23237        -0.18516
C         41.86599        59.02080         0.17301
C         44.89738        16.76654         2.32781
C         43.81214        17.10851         1.42548
C         45.30769        18.77978         0.35155
C         43.97863        18.18751         0.57112
C         45.39606        20.09920        -0.41044
C         44.09293        20.88652        -0.31959
C         45.34401        23.17164        -0.17418
C         44.10908        22.36287        -0.11964
C         45.28523        24.55795        -0.06852
C         44.00983        25.28041        -0.13259
C         45.22564        27.46402        -0.15957
C         43.99506        26.74072        -0.19832
C         45.22083        28.88468        -0.25724
C         43.98501        29.57064        -0.39755
C         45.27858        31.79716        -0.47692
C         43.94309        31.03243        -0.28065
C         45.22959        33.19174        -0.82298
C         43.99507        33.91883        -0.53419
C         45.21855        36.02717        -1.42642
C         44.00248        35.41723        -0.84369
C         45.09751        37.40780        -1.95216
C         43.85436        38.21255        -1.72125
C         45.26466        40.49616        -1.84283
C         43.92339        39.73216        -1.69029
C         45.26580        41.97405        -1.32253
C         44.00909        42.61780        -0.74790
C         45.25302        44.62350         0.04127
C         43.99347        43.86939        -0.18609
C         45.33573        45.79828         0.97056
C         44.06448        46.53983         1.21660
C         45.36035        48.68606         1.08132
C         44.10614        48.00944         1.27149
C         45.33733        50.09987         0.86754
C         44.10679        50.82001         1.03416
C         45.29530        52.87669         0.07269
C         44.10206        52.27467         0.72133
C         45.14013        54.23801        -0.56253
C         43.77928        54.56918        -1.10855
C         44.91584        56.63910        -1.90564
C         44.00422        56.04823        -0.86690
C         46.11144        17.36269         2.27636
C         47.70246        19.11400         1.28907
C         46.46301        18.29152         1.19216
C         47.82675        20.33930         0.66937
C         46.68270        20.93904        -0.09955
C         47.88204        23.26864         0.13872
C         46.65240        22.45969        -0.21597
C         47.74906        24.71679         0.34666
C         46.51014        25.34369         0.10209
C         47.67242        27.50337         0.17461
C         46.46094        26.76360         0.04884
C         47.66780        28.90554        -0.11674
C         46.47689        29.60036        -0.31333
C         47.67387        31.69029        -0.93332
C         46.50836        31.01706        -0.64779
C         47.70355        33.07526        -1.45187
C         46.39138        33.86395        -1.37695
C         47.63832        35.95628        -1.99069
C         46.41728        35.33787        -1.49222
C         47.51650        37.25301        -2.43503
C         46.35713        38.14822        -2.24602
C         47.81004        40.15582        -2.14982
C         46.52094        39.62739        -2.07152
C         47.80901        42.25010        -1.29777
C         46.54540        42.62150        -0.89320
C         47.76931        44.41311         0.45175
C         46.53174        43.93213        -0.20915
C         47.90776        45.73003         0.85497
C         46.65228        46.50545         1.11649
C         47.81690        48.68711         0.78171
C         46.62246        47.99214         1.04596
C         47.78257        50.08601         0.49277
C         46.55243        50.77888         0.49613
C         47.69841        52.86291        -0.42360
C         46.46697        52.17083         0.04700
C         47.52251        53.89763        -1.50644
C         46.19454        54.58200        -1.59837
C         45.99103        55.90701        -2.24912
C         49.91595        19.19914         2.34569
C         48.76526        18.54253         2.08555
C         50.19861        20.49487         1.71559
C         49.11387        21.09132         0.82953
C         50.12799        23.42712         1.35202
C         49.14366        22.58753         0.62777
C         50.10305        24.80459         1.24192
C         48.92600        25.46230         0.66846
C         50.04398        27.69381         1.00059
C         48.87905        26.85783         0.54306
C         50.18736        29.00505         0.27015
C         48.96104        29.58013        -0.31268
C         50.11935        31.87796        -0.41316
C         48.96216        31.00471        -0.77055
C         50.11814        33.25308        -0.98313
C         48.98927        33.82754        -1.50767
C         50.32281        35.95346        -2.23183
C         48.95339        35.21715        -2.10567
C         50.45999        37.44440        -2.08800
C         49.37516        38.29640        -2.38533
C         50.14935        40.14027        -0.86367
C         49.13256        39.56691        -1.89728
C         50.31129        41.73146        -0.81011
C         48.99097        42.47246        -0.48569
C         50.70882        44.30219         1.04100
C         48.81691        43.41687         0.50200
C         50.55467        45.77016         1.13736
C         49.17987        46.44257         1.18656
C         50.35856        48.62424         0.36856
C         49.14003        47.97680         0.95963
C         50.25055        49.95899        -0.10179
C         49.12515        50.83557         0.44454
C         50.17343        52.78829        -1.02535
C         49.03273        52.23034        -0.21268
C         49.94811        54.00147        -1.84503
C         48.73524        54.52276        -2.07064
C         52.21366        20.80281         3.12599
C         51.20046        21.36330         2.40378
C         52.20141        23.70823         2.87286
C         51.06975        22.83707         2.32126
C         52.47787        25.03342         2.24448
C         51.28956        25.60582         1.60876
C         52.61086        27.57080         0.96354
C         51.31619        26.92107         1.18451
C         52.64709        28.99832         0.42445
C         51.35782        29.69611         0.22052
C         52.69129        31.82209        -0.16455
C         51.38221        31.17013         0.01506
C         52.70761        33.24546        -0.54455
C         51.40394        33.98059        -0.92574
C         52.77313        35.56575        -2.15404
C         51.51829        35.15730        -1.79341
C         52.89956        37.69294        -2.07183
C         51.61019        38.19256        -1.66056
C         52.77151        40.10946        -0.69273
C         51.52880        39.47879        -1.08867
C         52.80899        41.43819        -0.28783
C         51.51413        42.11362         0.15052
C         52.91478        44.36021         0.09379
C         51.68982        43.62855         0.36983
C         52.93970        45.77130         0.16865
C         51.74867        46.53406         0.63218
C         52.70391        48.52756        -0.44790
C         51.57305        47.92156         0.16311
C         52.51808        49.79662        -1.03548
C         51.30347        50.48845        -0.87181
C         52.06481        52.10657        -2.66123
C         51.28413        51.87597        -1.41483
C         53.15602        21.60799         3.84934
C         55.05252        24.29417         3.94402
C         53.16653        22.96002         3.70237
C         54.93985        25.27355         2.96585
C         53.71267        25.73508         2.28690
C         55.00668        27.74430         1.39319
C         53.82126        27.01844         1.58576
C         55.07031        29.09204         0.86260
C         53.89077        29.76697         0.52278
C         55.15283        31.83508        -0.04092
C         53.88103        31.15237         0.10469
C         55.21082        33.11249        -0.65022
C         53.99425        33.81084        -0.99214
C         55.26763        35.77539        -1.87891
C         54.00823        35.03207        -1.65454
C         55.33299        37.32039        -1.77247
C         54.08355        38.08232        -1.53132
C         55.39102        39.90676        -0.41133
C         54.03916        39.29374        -0.69822
C         55.40653        41.37226        -0.09944
C         54.08554        42.13258        -0.00748
C         55.32926        44.30784        -0.17594
C         54.11857        43.62457        -0.12346
C         55.36952        45.74124        -0.06473
C         54.14394        46.50471        -0.03829
C         55.13742        48.66899        -0.85677
C         54.03784        47.91184        -0.38702
C         54.98039        49.89657        -1.67619
C         53.61667        50.49368        -1.76014
C         53.19365        51.40967        -2.84969
C         57.49356        24.13729         3.90309
C         56.29230        23.69607         4.35684
C         57.55064        25.43115         3.22611
C         56.21775        25.99933         2.73169
C         57.59305        27.76193         1.46259
C         56.28454        27.06275         1.68656
C         57.56600        29.18541         1.06758
C         56.34530        29.80917         0.78070
C         57.57399        31.93479         0.33436
C         56.35828        31.18742         0.34841
C         57.60374        33.25428        -0.20204
C         56.46866        33.74879        -0.85496
C         57.84984        35.71139        -1.80199
C         56.53373        35.01135        -1.64368
C         57.85170        37.20833        -1.64286
C         56.63561        37.92285        -1.41229
C         57.86228        39.95906        -0.83112
C         56.64564        39.25971        -0.92483
C         57.86677        41.39908        -0.56151
C         56.64062        42.09438        -0.39669
C         57.85541        44.22849         0.00391
C         56.61022        43.58630        -0.55299
C         57.87674        45.69626         0.02127
C         56.63565        46.34954         0.17255
C         57.59442        48.80609        -1.30621
C         56.49177        48.38920        -0.53559
C         57.30290        49.64094        -2.45900
C         56.07013        50.17835        -2.63798
C         60.05586        25.32372         2.98537
C         58.83962        25.95627         2.69048
C         60.06999        27.85313         1.75019
C         58.84834        27.20063         2.02490
C         60.04922        29.23174         1.25314
C         58.80788        29.90355         1.01380
C         60.03184        32.02731         0.68034
C         58.81080        31.29781         0.70875
C         60.03313        33.55341         0.69646
C         58.78147        34.22166         0.01751
C         60.38130        35.64197        -1.44399
C         59.07987        34.86454        -1.37701
C         60.36491        37.18931        -1.61127
C         59.07564        37.88905        -1.46731
C         60.34228        39.94553        -0.92173
C         59.09769        39.27568        -1.09749
C         60.41362        41.38290        -0.48440
C         59.09557        42.08052        -0.52263
C         60.35805        44.30387        -0.50531
C         59.16339        43.50794        -0.16088
C         60.32498        45.71915        -0.39997
C         59.11180        46.35456         0.00895
C         60.06403        48.47081        -1.79516
C         58.93426        48.36779        -1.00388
C         61.26551        25.92605         2.63296
C         61.27696        27.19178         2.05682
C         61.23625        29.95120         1.09807
C         61.22599        31.32491         0.83572
C         61.35748        34.10225         0.19881
C         61.52925        35.02572        -0.76116
C         61.59438        37.91615        -1.34763
C         61.56590        39.24558        -1.01371
C         61.39763        42.22085        -1.27888
C         61.38101        43.58402        -1.21445
C         61.41419        46.54610        -0.88207
C         61.27720        47.75902        -1.51984
O         50.28881        20.43770         0.25135
O         27.65929        27.86110         0.69286
O         51.98743        34.12835         0.40537
O         58.32486        35.26360         0.82742
O         25.60895        33.28382         1.56962
O         48.54011        53.26508         0.71164
O         37.56295        36.32365         1.58031
O         42.89361        45.48827        -1.32793
O         28.00588        36.70151        -1.00461
O         33.79282        47.78112         0.22676
O         49.16496        47.38287         2.29025
O         44.96405        55.53953         0.24875
O         40.39326        54.28143        -1.42021
O         54.61528        51.09223        -0.85891
O         41.88182        21.78334        -2.02013
O         37.77293        44.70822         2.65464
O         32.49609        28.81437         0.53565
O         44.67224        31.54570         0.86032
O         30.10989        44.73053        -0.18736
O         27.00342        46.48790         3.03541
O         31.51629        51.70412         3.88300
O         38.72263        53.11306         2.69148
O         49.21016        29.95085        -1.74627
O         27.28317        41.69623         2.99536
O         55.35691        36.61632        -3.04782
O         23.25150        28.41847        -2.96630
O         38.55360        48.32690         3.27461
O         28.45964        33.10881         1.84021
O         43.56294        39.05091        -2.89833
O         51.50618        46.35470         2.07753
O         43.58158        53.27992         1.67139
O         41.18833        39.07486        -2.45013
O         31.58160        42.99928         2.74429
O         42.97795        53.72052        -1.93227
O         46.01153        44.95053        -1.18115
O         46.03172        45.75621         2.25137
O         52.85782        36.66141        -3.02259
O         27.22095        39.24932         2.43371
O         24.77134        40.51783         2.52628
O         39.99063        35.84751         0.98068
O         34.83564        20.33261        -2.78427
O         36.82776        37.66918        -1.72289
O         57.25640        35.03775        -2.95110
O         29.31052        50.51222         3.38864
O         41.64080        51.93796         2.44684
O         46.25380        17.77271        -0.16715
O         60.56183        36.23377        -2.73097
O         44.15284        34.93512         0.53281
O         26.14003        29.44065        -2.23540
O         53.95874        23.70154         4.56998
O         34.90709        41.55775        -1.31782
O         51.46500        52.85992        -0.33495
O         46.99463        21.62093        -1.35265
O         58.51191        43.68940         1.17224
O         45.48005        37.62184        -3.35339
O         39.26288        37.65239        -2.11045
O         43.29801        22.63761         1.11775
O         33.74879        52.90924         3.68686
O         49.63125        35.38203        -3.38580
O         54.79980        41.69199         1.21223
O         40.31362        19.18937        -2.00927
O         52.78461        27.84914        -0.48864
O         57.04200        26.78951         0.46372
O         34.49784        31.86856        -1.88971
O         47.94077        41.51328        -2.46626
O         36.14955        46.39548        -0.01586
O         40.02672        45.79128         2.65523
O         42.48923        17.91900        -1.39487
O         43.34977        45.74010         2.25105
O         42.92571        40.76845         0.37413
O         45.11968        41.63096        -2.73627
O         46.52426        53.48310        -2.50453
O         24.60358        45.40981         2.49054
O         49.00091        22.98401        -0.76689
O         31.66604        25.64382         0.16027
O         32.30134        35.38386         2.04614
O         50.47789        31.83054         1.00247
O         33.04079        31.86058         1.33966
O         46.87510        33.22821        -2.63808
O         37.81489        54.48177        -0.57408
O         56.67656        47.65717         0.65383
O         41.32567        26.00977         1.00456
O         35.52987        23.89668        -2.94603
O         41.13701        43.53265        -1.55112
O         49.67390        43.54945         1.59117
O         50.90985        23.57552         3.59463
O         54.69494        39.12513         0.60577
O         48.45857        37.77943        -3.30613
O         59.13118        47.73609         0.24944
O         56.82467        26.47660         3.97916
O         59.27409        33.78320        -2.29270
H         58.58945        33.87835        -3.00347
O         30.32837        24.74009        -3.19083
H         29.74948        24.05345        -3.59933
O         49.61978        39.69431         0.40140
H         50.16559        40.11146         1.11555
O         49.47742        51.04951         1.83045
H         49.12849        51.93377         2.08754
O         41.75666        15.60212        -0.56313
H         42.36354        16.02494        -1.21729
O         28.78859        42.43004        -0.30004
H         29.28692        43.26785        -0.57406
O         59.96302        33.90856         2.09457
H         59.28051        34.64256         2.11679
O         50.69882        42.17489        -2.11852
H         49.93952        42.01146        -2.72501
O         40.14511        32.02065        -2.45654
H         39.90548        31.17672        -2.90912
O         23.74134        28.89673         0.53995
H         24.36285        29.30286         1.18082
O         39.37626        30.66360         0.91482
H         39.00136        31.39443         1.46779
O         35.21523        44.29441         2.78007
H         36.14607        44.35849         3.12437
O         26.46876        24.93058         0.65066
H         27.09572        25.57081         1.05421
O         38.98438        29.72470        -2.62141
H         38.91471        28.83018        -3.01747
O         22.25570        46.33669         1.39518
H         22.80174        46.04694         2.16848
O         33.94977        29.63033        -2.76610
H         34.37428        30.48759        -3.02778
O         49.68084        28.12304         2.37342
H         49.55183        27.31557         2.91658
O         34.37929        37.32135        -1.54524
H         35.09973        37.32294        -2.22164
O         29.10546        22.10597        -3.34094
H         29.86578        21.53226        -3.57963
O         22.31182        33.03445         1.08739
H         23.09896        32.85398         1.64576
O         60.88357        41.33936         0.91093
H         60.44273        42.06406         1.40494
O         56.73216        43.85447        -2.00679
H         55.96043        43.44887        -2.45648
O         37.89426        32.85284         1.56646
H         37.91772        33.74543         1.98488
O         26.25041        43.91371         3.57519
H         26.84017        43.26735         4.02389
O         35.66317        40.83790         1.93348
H         34.85922        40.99416         2.46977
O         51.22947        41.51705         1.44170
H         52.02142        41.61997         2.01213
O         33.13089        48.32097         3.77299
H         32.52694        48.83431         4.35155
O         45.47525        19.73201        -1.80167
H         46.13677        19.00938        -1.87866
O         23.61623        36.27352        -2.37123
H         23.73319        35.41328        -2.82662
O         32.47905        27.46842        -2.87017
H         33.11867        28.10456        -3.27233
H         22.75692        23.45019        -1.62175
H         20.71752        24.73770        -2.14725
H         20.80738        27.19047        -2.48705
H         20.70776        29.21122        -1.93447
H         20.70189        31.47147        -1.01806
H         20.75108        33.42230        -1.28246
H         20.99791        35.76114        -1.73653
H         20.83586        37.62625        -0.79464
H         20.76948        39.99632        -0.21012
H         20.98484        41.86090        -0.51767
H         21.09809        44.28356        -0.63693
H         21.38496        46.01001        -1.34113
H         23.93840        49.44769        -1.51765
H         22.03682        48.12216        -2.37641
H         24.49062        22.54144        -2.04811
H         25.14742        50.59849        -0.50495
H         26.61698        21.32747        -2.03512
H         26.99020        51.90326         0.43516
H         30.34724        19.22751        -0.68717
H         28.22022        20.35549        -1.04782
H         30.36889        54.17421         1.94103
H         28.37300        52.97104         1.39498
H         31.96717        18.19231        -1.12090
H         32.00481        55.18815         2.06095
H         34.05106        17.05504        -0.72481
H         34.10559        56.30428         1.62083
H         37.54102        15.30064         1.09493
H         35.52798        16.38461         0.30287
H         37.96052        58.30373         0.69785
H         35.87738        57.28889         1.37601
H         39.01075        14.75802         2.11796
H         39.76472        59.10607         0.60829
H         43.14467        15.08826         3.12447
H         40.99391        13.91234         3.28121
H         43.96080        58.68885        -0.27912
H         42.00590        60.09482         0.35649
H         44.70769        16.05649         3.14246
H         44.69837        57.61213        -2.36842
H         46.83309        17.16128         3.07913
H         46.69458        56.24294        -3.02343
H         50.63963        18.76222         3.04614
H         48.61264        17.55121         2.52978
H         50.84560        54.49846        -2.23906
H         48.62206        55.42327        -2.68983
H         52.32083        19.71236         3.19165
H         51.70799        52.83458        -3.40403
H         53.85674        21.12875         4.54396
H         53.82173        51.54832        -3.74159
H         58.40579        23.55661         4.09088
H         56.22416        22.78649         4.96919
H         58.11961        49.89797        -3.14821
H         55.89183        50.90376        -3.44412
H         60.07344        24.35381         3.49939
H         60.05200        49.12321        -2.68038
H         62.21288        25.41580         2.85385
H         62.24375        27.66274         1.83796
H         62.20793        29.46078         1.23979
H         62.19255        31.84202         0.79227
H         62.25572        33.75674         0.73272
H         62.54243        35.36965        -1.01804
H         62.55285        37.39798        -1.48128
H         62.50356        39.78247        -0.81670
H         62.15927        41.72073        -1.89630
H         62.15965        44.15333        -1.74284
H         62.41712        46.09302        -0.89126
H         62.18507        48.16259        -1.99650
