         404
 CSIRO Nanostructure Databank - Neutral Graphene Oxide Data Set
C          1.55221         2.40376         2.54891
C          1.45087         3.73168         2.06688
C          2.72109         1.69997         2.38862
C          2.51022         4.35032         1.42141
C          1.34246         6.66348         1.39039
C          1.31089         7.95002         0.92957
C          2.33784         5.72481         0.86886
C          2.39367         8.53255         0.18875
C          1.09441        10.71459        -0.04871
C          1.12502        12.07126         0.04494
C          2.31971         9.92478        -0.40282
C          2.34478        12.81261        -0.06035
C          1.32751        14.99068         0.80718
C          1.43339        16.31458         1.07718
C          2.27707        14.32034        -0.16602
C          2.54448        17.10233         0.57995
C          2.62073        18.51232         0.76906
C          3.84863         2.30180         1.74906
C          3.75160         3.64507         1.23798
C          5.05000         1.58847         1.62360
C          4.88780         4.22706         0.60768
C          3.52585         6.35919         0.15376
C          3.57531         7.81991         0.00351
C          4.78702         5.57491        -0.01170
C          4.83501         8.50784        -0.24351
C          3.61044        10.68243        -0.18616
C          3.57088        12.12162        -0.15564
C          4.82313         9.95874        -0.21650
C          4.80439        12.85523        -0.16975
C          3.62059        15.01038        -0.15845
C          3.63442        16.41657        -0.01001
C          4.83020        14.26631        -0.25695
C          4.81223        17.19625        -0.42233
C          3.74415        19.24966         0.44067
C          4.91588        18.63024        -0.10116
C          6.20845         2.19774         1.09910
C          6.13505         3.55317         0.60769
C          7.43820         1.50174         1.07280
C          7.35302         4.19177         0.19010
C          6.03508         6.32508        -0.37367
C          6.05427         7.81505        -0.32041
C          7.33103         5.57380        -0.33264
C          7.31682         8.51531        -0.28802
C          6.07786        10.64001        -0.15642
C          6.04528        12.09733         0.04110
C          7.30524         9.95522        -0.19547
C          7.35569        12.84658        -0.00858
C          6.10567        14.96359        -0.35070
C          6.12710        16.42256        -0.60937
C          7.29488        14.28553        -0.29482
C          7.35999        17.19031        -0.50552
C          6.11807        19.30024        -0.30792
C          7.35896        18.60320        -0.53981
C          8.63634         2.14811         0.71718
C          8.58834         3.54006         0.32403
C          9.87582         1.46920         0.78623
C          9.83975         4.25345         0.17050
C          8.61510         6.36061        -0.36732
C          8.56750         7.83845        -0.28043
C          9.85770         5.65514        -0.02476
C          9.80598         8.53271        -0.21248
C          8.56556        10.67601        -0.23231
C          8.59283        12.09166        -0.28306
C          9.80779         9.98158        -0.27214
C          9.78838        12.77247        -0.56688
C          8.59170        14.98883        -0.32725
C          8.63078        16.47656        -0.39655
C          9.76377        14.22347        -0.83826
C          9.87851        17.16416        -0.77059
C          8.60830        19.28476        -0.62940
C          9.84944        18.59909        -0.78569
C         11.10332         2.14422         0.59245
C         11.07302         3.56029         0.33123
C         12.34631         1.47686         0.70366
C         12.30188         4.27680         0.25372
C         11.07011         6.38846        -0.04377
C         11.04923         7.82740        -0.18202
C         12.29817         5.69909         0.07439
C         12.29118         8.52241        -0.27564
C         11.02230        10.70040        -0.37701
C         11.02384        12.09164        -0.61035
C         12.32784        10.01606        -0.08979
C         12.26406        12.82459        -0.87447
C         11.03187        14.96604        -1.11732
C         11.05934        16.44256        -0.96717
C         12.30112        14.20635        -1.10398
C         12.30222        17.11255        -1.10913
C         11.08468        19.26680        -0.92016
C         12.29895        18.54853        -1.03936
C         13.57278         2.17852         0.62644
C         13.52760         3.58978         0.42241
C         14.83671         1.50710         0.70336
C         14.76229         4.37561         0.49131
C         13.53722         6.40898        -0.12137
C         13.50675         7.83366        -0.35433
C         14.75507         5.75409        -0.01360
C         14.75647         8.52769        -0.61587
C         13.51620        10.67802        -0.74413
C         13.48068        12.07428        -0.99074
C         14.71384         9.94557        -0.87469
C         14.64188        12.73853        -1.49855
C         13.53259        14.91359        -1.35012
C         13.52799        16.38255        -1.31596
C         14.71210        14.17803        -1.58621
C         14.72901        17.10368        -1.39484
C         13.54081        19.22935        -1.05105
C         14.74307        18.52590        -1.17514
C         16.06667         2.18382         0.65339
C         16.07128         3.66437         0.70227
C         17.31178         1.53627         0.63446
C         17.34543         4.41366         0.41663
C         15.98476         6.34039        -0.65674
C         15.96572         7.84274        -0.76108
C         17.30020         5.81287        -0.12511
C         17.19912         8.51235        -1.07970
C         15.88424        10.57331        -1.40676
C         15.69596        11.87932        -1.89795
C         17.17244         9.90219        -1.39502
C         17.52950        12.92013        -1.94237
C         15.99947        14.91409        -1.85335
C         15.99726        16.42296        -1.74025
C         17.32877        14.26740        -1.59235
C         17.33933        17.16761        -1.56678
C         15.98322        19.21190        -0.97887
C         17.20521        18.55116        -0.96498
C         18.54839         2.23539         0.46317
C         18.58243         3.65190         0.21302
C         19.76060         1.53136         0.49366
C         19.75307         4.30211        -0.22319
C         18.52826         6.40999        -0.69982
C         18.45341         7.78516        -1.06749
C         19.74604         5.69737        -0.67726
C         19.68490         8.48146        -1.24954
C         18.42853        10.61922        -1.45031
C         18.51118        12.08165        -1.41578
C         19.63513         9.90767        -1.31013
C         19.60488        12.74395        -0.74750
C         18.40548        14.94067        -0.95837
C         18.41884        16.36100        -0.85460
C         19.55823        14.18213        -0.53834
C         19.56791        17.02769        -0.40785
C         18.37445        19.19323        -0.51729
C         19.58163        18.48097        -0.30576
C         20.98341         2.18543         0.22026
C         20.97416         3.55846        -0.20842
C         22.20226         1.47431         0.33766
C         22.18866         4.15842        -0.64615
C         20.96434         6.33692        -1.12548
C         20.93511         7.75737        -1.31026
C         22.18045         5.51353        -1.20637
C         22.14835         8.58055        -1.28214
C         20.90367        10.71838        -1.27512
C         20.75751        12.00562        -0.51959
C         22.10942         9.92338        -0.88177
C         21.91850        12.59132         0.13076
C         20.70046        14.86335        -0.08450
C         20.74856        16.29332        -0.04997
C         21.88157        14.10509         0.35584
C         21.94529        16.98828         0.29781
C         20.75561        19.13967         0.07869
C         21.96062        18.42954         0.33584
C         23.41388         2.06070        -0.05432
C         23.36327         3.37708        -0.62004
C         24.66727         1.38331         0.14484
C         24.59725         3.89507        -1.20178
C         23.37078         5.93223        -1.81399
C         23.43221         8.12192        -1.68447
C         24.64126         5.29723        -1.61724
C         24.63721         8.71587        -1.28191
C         23.29698        10.59037        -0.42141
C         23.21373        11.89078         0.06659
C         24.58184         9.90855        -0.47807
C         24.39397        12.53011         0.66669
C         23.19505        14.81790         0.35958
C         23.17202        16.29212         0.53914
C         24.44512        14.02939         0.57039
C         24.36228        16.97399         0.75847
C         23.17168        19.11039         0.56375
C         24.39491        18.41510         0.73180
C         25.90750         1.93405        -0.19336
C         25.91099         3.20108        -0.96432
C         27.14949         1.31390         0.07520
C         27.12826         4.02688        -0.98177
C         25.87922         5.90512        -1.81391
C         25.91395         8.12900        -1.55207
C         27.13021         5.38315        -1.31561
C         27.08811         8.49988        -0.90500
C         25.76935        10.46613        -0.00149
C         25.71482        11.78095         0.67706
C         27.04836         9.81453        -0.25004
C         26.99367        12.55764         0.85833
C         25.68498        14.74171         1.02098
C         25.62774        16.24917         1.03556
C         26.98229        14.04007         0.82640
C         26.88100        16.97486         0.81083
C         25.63183        19.08833         0.83057
C         26.87716        18.39180         0.78931
C         28.38057         1.90593        -0.30545
C         28.37037         3.26839        -0.88056
C         29.61417         1.26522        -0.16980
C         29.65390         4.08524        -0.93060
C         28.32860         6.23199        -1.07800
C         28.29886         7.67048        -0.88236
C         29.55834         5.55792        -0.84288
C         29.50004         8.32838        -0.45882
C         28.23941        10.48710        -0.02658
C         28.28406        11.86276         0.51930
C         29.50526         9.81856        -0.37352
C         29.49578        12.69143         0.33700
C         28.15512        14.75037         0.66876
C         28.09264        16.22430         0.51022
C         29.44356        14.08729         0.51631
C         29.41477        17.01646         0.48371
C         28.11276        19.10545         0.83020
C         29.35984        18.45700         0.83397
C         30.85837         1.95768        -0.34384
C         30.86539         3.37970        -0.51156
C         32.09175         1.28011        -0.24595
C         32.05752         4.11935        -0.38541
C         30.74781         6.24433        -0.44256
C         30.70261         7.64944        -0.23202
C         31.99804         5.54847        -0.31916
C         31.87973         8.33338         0.45045
C         30.79187        10.57095        -0.15239
C         30.73847        12.01905         0.19512
C         32.02291         9.81099         0.14379
C         31.92626        12.72359         0.37600
C         30.67112        14.84879         0.60199
C         30.63735        16.25295         0.73610
C         31.93471        14.14098         0.57393
C         31.81952        17.00464         1.12756
C         30.55345        19.14835         1.10516
C         31.82381        18.49716         1.10170
C         33.32313         1.98057        -0.32960
C         33.29606         3.41312        -0.34252
C         34.57403         1.31510        -0.36357
C         34.51066         4.15124        -0.38294
C         33.21932         6.27671        -0.06716
C         33.19682         7.62078         0.29168
C         34.47153         5.56149        -0.22172
C         34.42708         8.28454         0.89237
C         33.21783        10.48330         0.41221
C         33.18658        11.97327         0.53301
C         34.44848         9.81287         0.70118
C         34.47633        12.75450         0.36459
C         33.17120        14.85262         0.58841
C         33.16179        16.26932         0.97530
C         34.41910        14.24464         0.25613
C         34.36541        17.08639         0.82507
C         33.00970        19.20349         1.13216
C         34.30767        18.58634         0.68384
C         35.79096         2.03322        -0.47048
C         35.75325         3.46898        -0.50018
C         37.05108         1.38304        -0.50636
C         36.95824         4.22062        -0.64318
C         35.69222         6.27772        -0.19193
C         35.70936         7.58536         0.44801
C         36.90100         5.63943        -0.53562
C         36.92039         7.94078         0.98955
C         35.65683        10.59169         0.77979
C         35.68032        11.91564         0.21573
C         36.92319        10.13845         1.24365
C         36.90335        12.44417        -0.19583
C         35.59142        15.04563         0.26302
C         35.55748        16.43671         0.62816
C         36.87395        14.56608        -0.17245
C         36.82407        17.13421         0.94884
C         35.58828        19.27656         1.07672
C         36.81238        18.61583         1.02952
C         38.25252         2.11710        -0.61776
C         38.20072         3.53345        -0.73850
C         39.53914         1.47314        -0.58163
C         39.45098         4.28339        -0.94116
C         38.11473         6.53157        -0.70301
C         38.18724         7.46816         0.47881
C         39.42872         5.78561        -0.92036
C         39.37590         8.05431         0.81461
C         38.14760        10.81296         1.03222
C         38.16102        12.04336         0.30277
C         39.42435        10.22429         1.31367
C         39.36547        12.84575         0.23426
C         38.10782        15.04511         0.22019
C         38.12903        16.39467         0.83129
C         39.34518        14.28777         0.13017
C         39.36473        17.17209         0.66623
C         38.07290        19.26694         1.07648
C         39.30864        18.58782         0.83951
C         40.72436         2.19464        -0.60501
C         40.73934         3.59885        -0.74451
C         41.94002         4.37297        -0.76168
C         40.72450         6.53755        -0.69591
C         40.66443         7.83301         0.12822
C         41.95895         5.74678        -0.78867
C         41.84615         8.59716         0.64207
C         40.61640        10.77168         0.87709
C         40.61118        12.17697         0.48307
C         41.82159         9.92747         0.90725
C         41.80530        12.92470         0.41429
C         40.56450        15.02141         0.22461
C         40.55523        16.49674         0.31981
C         41.77871        14.30947         0.28951
C         41.72337        17.27043         0.15433
C         40.51988        19.31628         0.69074
C         41.69434        18.65840         0.34644
O          8.04055         5.77460        -1.60227
O         15.93361        15.75586        -3.05837
O          6.75053        12.50276         1.28619
O         29.11376         3.44378        -2.13780
O         39.43869         8.93737         1.90283
O         16.60651        12.36432        -2.83669
O         37.46649        16.51606         2.13860
O         15.38069         4.21112         1.85899
O         25.57446        15.43855         2.29865
O         21.66431        13.19462         1.46417
O         27.81142        11.97149         1.92540
O         39.42782         5.11289        -2.21207
O          2.42351         5.74905        -0.59601
O         25.94365         7.11436        -2.51162
O          8.82814        15.73259         0.91575
O         32.51593        16.47840         2.29461
O         28.72599        16.67319        -0.75258
O         36.84929        13.51316        -1.09777
O         17.45340         5.59323         1.30031
O         24.05308        14.42963        -0.79111
O         24.86923        11.87913         1.87742
O         23.41449         7.08345        -2.61494
O         36.94849         8.94160         1.98342
O         25.21553         3.04327        -2.25150
O         40.64624         7.84433        -1.34568
O         33.91710        12.41976         1.71284
O         30.24280        10.38916        -1.53587
O         10.11991        14.55160        -2.22424
O          5.20552         5.70350        -1.41820
O          5.29492        16.83704        -1.75069
O         21.20427        11.11640        -2.67444
H         21.16312        10.30725        -3.22813
O         34.24659        18.76511        -0.80761
H         35.14645        18.59701        -1.16254
O          2.22000         9.71287        -1.86170
H          2.89543         9.04617        -2.11271
O         37.89523         7.34832        -1.88609
H         38.23562         6.83243        -2.65071
O         15.95601         5.82780        -2.04353
H         15.20013         6.25045        -2.50476
O          1.69942        14.56881        -1.50496
H          1.75154        15.53520        -1.66795
O         31.54200         8.28505         1.88731
H         32.39624         8.32074         2.38563
O         17.87492        17.40416        -2.89862
H         17.46632        16.72587        -3.48914
O         12.52409        10.20354         1.36574
H         13.35286         9.73875         1.61108
O         34.29990         8.09612         2.34883
H         35.11145         8.49121         2.74810
H          0.68675         1.94357         3.04486
H          0.50052         4.26768         2.19608
H          2.81101         0.66919         2.76007
H          0.59765         6.32454         2.12416
H          0.49268         8.60870         1.25479
H          0.12649        10.19364        -0.03759
H          0.18363        12.62203         0.18476
H          0.47031        14.42143         1.19523
H          0.68374        16.81395         1.70962
H          1.75983        19.02241         1.22577
H          5.10598         0.55368         1.99244
H          3.76137        20.33167         0.63576
H          7.46733         0.45357         1.40511
H          6.16050        20.38653        -0.13733
H          9.88426         0.40107         1.04922
H          8.61412        20.38444        -0.60875
H         12.35657         0.39218         0.88446
H         11.11549        20.36613        -0.90508
H         14.83970         0.40795         0.75180
H         13.56209        20.32174        -0.92706
H         17.34614         0.43962         0.71743
H         15.94451        20.27308        -0.68774
H         19.76309         0.45812         0.73262
H         18.33017        20.25959        -0.24670
H         22.18866         0.44676         0.72885
H         20.76208        20.23819         0.13863
H         24.64176         0.40345         0.64524
H         23.17935        20.21021         0.54739
H         27.16303         0.32917         0.56540
H         25.64172        20.18799         0.84107
H         29.64305         0.21380         0.15141
H         28.08105        20.19512         0.97733
H         32.09866         0.18495        -0.14516
H         30.51630        20.23839         1.25077
H         34.59900         0.21582        -0.33060
H         32.96428        20.30380         1.15456
H         37.09431         0.28629        -0.43602
H         35.57374        20.37507         1.15368
H         39.57270         0.37851        -0.48717
H         38.09661        20.36226         1.18223
H         41.68271         1.66211        -0.51362
H         42.89763         3.83053        -0.75475
H         42.91767         6.28263        -0.81931
H         42.81860         8.08004         0.64780
H         42.78263        10.41971         1.12937
H         42.77236        12.41961         0.54255
H         42.73178        14.85499         0.31970
H         42.67208        16.79457        -0.12852
H         40.51507        20.40735         0.82512
H         42.62095        19.23550         0.21768
