         234
 CSIRO Nanostructure Databank - Neutral Graphene Oxide Data Set
C          1.27970         2.15808        -1.32417
C          1.22001         3.52015        -1.02737
C          2.49588         1.47601        -1.33720
C          2.39388         4.25331        -0.72899
C          1.15849         6.42625        -0.38760
C          1.13645         7.75575        -0.02634
C          2.36694         5.66746        -0.41032
C          2.32772         8.44987         0.34179
C          1.17867        10.70692         0.83719
C          1.15898        12.06489         0.91368
C          2.32602         9.79569         0.86435
C          2.21507        13.09250         1.34881
C          1.02559        15.17806         0.50573
C          1.07547        16.52056        -0.04725
C          2.15510        14.43255         0.63710
C          2.25099        17.21798        -0.11452
C          2.37064        18.53765        -0.69074
C          3.70352         2.15619        -1.05721
C          3.64402         3.56300        -0.75112
C          4.94252         1.45478        -1.04519
C          4.84567         4.26342        -0.45012
C          3.57664         6.33533        -0.08384
C          3.56353         7.73276         0.26958
C          4.81119         5.61262        -0.09490
C          4.80168         8.43433         0.42071
C          3.56273        10.28534         1.29033
C          3.60123        12.50341         1.34042
C          4.78606         9.78802         0.81521
C          4.73400        12.89650         0.69037
C          3.44136        15.07309         0.22338
C          3.48189        16.57725         0.48703
C          4.70179        14.28890         0.15498
C          4.78071        17.22648         0.09489
C          3.57499        19.14924        -0.85422
C          4.83316        18.51493        -0.46708
C          6.17084         2.10241        -0.80985
C          6.14427         3.56760        -0.62724
C          7.40645         1.43734        -0.76293
C          7.41492         4.21478        -0.11987
C          6.02711         6.27020         0.44987
C          6.06990         7.74527         0.42647
C          7.31670         5.52826         0.57439
C          7.25851         8.42332         0.56506
C          5.95234        10.65300         0.54442
C          6.00872        12.14474         0.63913
C          7.27329         9.88745         0.38146
C          7.22298        12.77503         0.36399
C          6.00330        14.99565         0.35724
C          6.01347        16.49029         0.38367
C          7.22885        14.23339        -0.09896
C          7.32655        17.19023         0.28672
C          6.05920        19.16096        -0.72112
C          7.33941        18.63165        -0.25971
C          8.62420         2.07787        -0.35914
C          8.61090         3.41130         0.08102
C          9.87118         1.36885        -0.35468
C          9.80876         4.03710         0.75357
C          8.60107         6.25281         0.77381
C          8.51394         7.72484         0.93581
C          9.77977         5.56469         0.74981
C          9.79548         8.51514         0.93847
C          8.51466        10.66663         0.47164
C          8.49566        12.04583         0.30546
C          9.76485         9.89267         0.35904
C          9.77032        12.74795         0.12461
C          8.51646        15.00323         0.12682
C          8.55208        16.36967         0.15782
C          9.74801        14.20772        -0.12964
C          9.83046        17.14671         0.16209
C          8.63466        19.17273        -0.67970
C          9.83490        18.55751        -0.32093
C         11.08622         2.04320        -0.16204
C         11.09611         3.45263         0.19955
C         12.32498         1.35583        -0.29965
C         12.28007         4.17783         0.19280
C         11.08363         6.26033         0.90674
C         11.10430         7.78205         0.95034
C         12.32445         5.56837         0.51421
C         12.33615         8.49069         0.52972
C         11.06087        10.61934         0.13915
C         11.00269        12.09547         0.11536
C         12.33339         9.89578         0.34453
C         12.28104        12.79555         0.01956
C         11.05790        14.92050        -0.26031
C         11.11667        16.39025         0.00451
C         12.31619        14.16860        -0.13296
C         12.34645        17.10926        -0.34935
C         11.08327        19.19519        -0.52120
C         12.32967        18.50536        -0.45006
C         13.55677         2.02465        -0.23543
C         13.57264         3.53931        -0.28376
C         14.77839         1.34974        -0.25639
C         14.75156         4.09684         0.51427
C         13.53703         6.31221         0.48019
C         13.52404         7.73937         0.42240
C         14.80319         5.60116         0.44638
C         14.80333         8.43726         0.03517
C         13.55569        10.63190         0.25222
C         13.53628        12.05045         0.09686
C         14.79501         9.92984         0.27243
C         14.77342        12.74650         0.03562
C         13.54964        14.89336        -0.63747
C         13.64264        16.37218        -0.16027
C         14.82145        14.15596        -0.29512
C         14.82649        17.11158        -0.79617
C         13.58506        19.22155        -0.47963
C         14.83023        18.61185        -0.59717
C         16.03301         2.04451        -0.16657
C         16.05163         3.43680         0.12804
C         17.25556         1.36538        -0.35542
C         17.26427         4.14559         0.19244
C         16.01260         6.25909         0.56663
C         15.99184         7.73945         0.67571
C         17.28130         5.56782         0.45694
C         17.26683         8.48371         0.77168
C         16.00862        10.63153         0.29594
C         15.99082        12.04169         0.22208
C         17.28676         9.83595         0.07245
C         17.25571        12.79965         0.33753
C         16.01817        14.83959        -0.39110
C         16.06454        16.22472        -0.91440
C         17.27589        14.23901        -0.01800
C         17.37949        16.85667        -0.94470
C         15.99419        19.43214        -0.40418
C         17.31034        19.06878        -0.72808
C         18.48211         2.04972        -0.28483
C         18.49742         3.45663        -0.02476
C         19.72571         1.36514        -0.48609
C         19.73174         4.16747         0.00723
C         18.51327         6.25554         0.49978
C         18.55191         7.70559         0.81315
C         19.74800         5.58184         0.24600
C         19.83563         8.46265         0.59439
C         18.58262        10.57901         0.30360
C         18.55286        12.04841         0.34101
C         19.79087         9.93533         0.36375
C         19.80422        12.77531        -0.01073
C         18.45285        14.96983         0.07160
C         18.48000        16.38171        -0.28197
C         19.77047        14.26998         0.02013
C         19.68508        17.21955        -0.01536
C         18.54604        19.52539        -0.25108
C         19.72877        18.70269        -0.26705
C         20.91463         2.04736        -0.45225
C         20.94727         3.45686        -0.21935
C         22.17445         4.16910        -0.21883
C         21.00217         6.28959         0.16651
C         21.05436         7.71792         0.23873
C         22.19425         5.53610        -0.05004
C         22.23732         8.47742         0.08318
C         21.06435        10.65214         0.25262
C         21.08923        12.05067         0.10663
C         22.25262         9.86303         0.16435
C         22.26064        12.85081        -0.17750
C         21.06315        14.95599         0.45423
C         21.01169        16.49297         0.27287
C         22.24273        14.21099        -0.13288
C         22.24028        17.25055         0.01061
C         20.97061        19.32856        -0.18681
C         22.19703        18.60872        -0.14851
O          3.63278        11.37542         2.16670
O          6.42628         5.61743         1.73245
O          6.48076        10.28230        -0.78474
O          6.03757        15.65624         1.64780
O          9.06067         8.33276         2.17410
O         16.42642         8.31763         1.95482
O         10.32096         9.97614        -0.99345
O         20.18438        17.02882         1.36548
O         10.63912        16.81983         1.34898
O         10.29225        14.56358        -1.47353
O         19.38523         8.06223         1.96087
O         11.26586         7.00098         2.17045
O         17.28571         9.55646        -1.33193
O          3.97307        14.59038        -1.06990
O          7.39868        18.29369         1.19744
O         17.43776        18.02905        -1.67645
O          7.02733         4.30244        -1.55113
O         17.96799        12.53415         1.61235
O         19.81335        13.56190        -1.26951
O         15.22600        16.58002        -2.06998
O         14.49604         3.74707         1.90859
H         15.20399         4.14535         2.45756
O          3.38438        16.74337         1.93540
H          4.24543        16.45593         2.31925
O          7.09719        14.17318        -1.54869
H          7.87514        13.69693        -1.91138
O         14.95268         8.27529        -1.40362
H         15.82015         8.74685        -1.63735
O         13.34251        14.93175        -2.07041
H         13.27685        14.01168        -2.40044
O          9.75548         3.65101         2.16616
H         10.45437         4.15040         2.64056
O         21.17741        14.73243         1.88702
H         20.65675        15.44411         2.32829
O          1.88780        13.36358         2.74374
H          2.14249        12.56337         3.25397
O         13.77719         3.92581        -1.66537
H         13.04081         3.56279        -2.19967
O         13.90080        16.36426         1.27273
H         13.04520        16.41800         1.75100
H          0.35114         1.61478        -1.54879
H          0.24148         4.01865        -1.02712
H          2.52332         0.40154        -1.56798
H          0.20855         5.94012        -0.64885
H          0.17408         8.28563        -0.00212
H          0.21305        10.23552         0.58964
H          0.16421        12.52693         0.79438
H          0.04704        14.76744         0.79543
H          0.13877        16.97921        -0.39812
H          1.45161        19.04007        -1.02915
H          4.93459         0.36993        -1.23001
H          3.62672        20.14948        -1.30828
H          7.43580         0.35840        -0.97746
H          6.06342        20.09077        -1.30843
H          9.88456         0.30534        -0.63388
H          8.65646        20.14294        -1.19745
H         12.31035         0.26039        -0.41082
H         11.08945        20.26739        -0.76607
H         14.78967         0.25251        -0.34769
H         13.54455        20.31749        -0.38484
H         17.24902         0.28710        -0.57402
H         15.83340        20.39667         0.10283
H         19.70971         0.28222        -0.67627
H         18.62693        20.52470         0.20405
H         21.86435         1.51759        -0.61520
H         23.11342         3.62010        -0.37877
H         23.16193         6.05403        -0.08064
H         23.19549         7.96715        -0.08749
H         23.22223        10.37453         0.08389
H         23.19384        12.34446        -0.46779
H         23.16306        14.76154        -0.37635
H         23.20049        16.72137        -0.05617
H         21.01217        20.42431        -0.26895
H         23.13445        19.16781        -0.28008
