         300
 CSIRO Nanostructure Databank - Neutral Graphene Oxide Data Set
C         30.59604        32.02166        -0.49841
C         30.28035        33.18632        -0.31554
C         30.19282        36.72519        -0.45919
C         30.27912        37.91995        -0.75607
C         30.77671        40.97273        -0.47418
C         30.20101        41.88140         0.14690
C         32.89678        29.13439        -0.90329
C         31.90057        29.83212        -1.09127
C         32.83822        31.56107         0.29043
C         31.42734        30.87228        -0.11332
C         33.00661        32.95238        -0.09361
C         30.70659        34.43493         0.33898
C         32.53670        36.15280        -0.83007
C         31.13363        35.59895        -0.51884
C         32.67586        37.65556        -1.10519
C         31.59743        38.63074        -0.56462
C         32.94964        40.57947        -1.38285
C         31.69393        40.05630        -1.02073
C         33.08751        41.99721        -1.41726
C         30.25710        43.05218         0.93644
C         32.67377        43.85804         0.56764
C         31.44566        43.78543         0.80930
C         35.48676        27.18022         0.45982
C         35.25000        28.49331        -0.14498
C         33.96573        29.21523         0.16213
C         35.43210        31.44648         0.25184
C         34.12117        30.75602         0.44235
C         35.58793        32.79749         0.56187
C         33.55701        33.96680        -0.47988
C         35.07870        35.97873        -0.08840
C         33.89775        35.34642        -0.89418
C         35.18211        37.50160        -0.50414
C         34.05399        38.23669        -1.24306
C         35.40039        40.43729        -0.85157
C         34.20831        39.75423        -1.48707
C         35.42925        41.79363        -0.69791
C         34.20676        42.59059        -0.76737
C         35.17424        44.37550         0.75656
C         33.98896        43.62984         0.19743
C         35.15216        44.80636         2.20894
C         37.82430        27.17716         0.83846
C         36.52738        26.51748         0.57776
C         37.80699        28.59800         0.30191
C         36.56005        29.23514        -0.30651
C         37.88256        31.46215        -0.18847
C         36.55525        30.77350        -0.55015
C         37.86326        32.96424        -0.32069
C         36.49068        33.65873        -0.32772
C         37.66001        35.90359         0.02445
C         36.48751        35.21421        -0.11897
C         37.64265        37.41428         0.38714
C         36.47729        38.22613        -0.24709
C         37.92821        40.37212        -0.61500
C         36.64966        39.63137        -0.80066
C         37.98724        41.88865        -0.55789
C         36.66062        42.63591        -0.47722
C         37.77924        44.17311         1.30676
C         36.52342        43.40020         0.84137
C         37.56544        44.97781         2.40752
C         36.18175        45.04762         2.85081
C         40.29232        24.32000         0.62334
C         39.26627        24.96712         0.87407
C         40.32683        26.98533         0.25994
C         39.12843        26.46541         1.16514
C         40.39202        28.52906         0.00406
C         39.09797        29.30302        -0.00541
C         40.39178        31.49976        -0.08973
C         39.04548        30.79730         0.05936
C         40.33202        32.95228         0.47623
C         39.09747        33.73166        -0.01178
C         40.29002        35.92684         0.14977
C         38.96871        35.18388         0.45836
C         40.32319        37.40432         0.41938
C         39.02871        38.16180         0.29823
C         40.45821        40.30734        -0.11773
C         39.15107        39.58183        -0.23167
C         40.51404        41.81616        -0.03161
C         39.23014        42.62305        -0.13081
C         40.37701        44.43964         1.42029
C         39.09861        44.07524         0.51293
C         40.47840        45.92794         1.76446
C         39.39216        46.51543         2.43241
C         40.35377        48.63227         2.04513
C         39.43779        47.92762         2.55421
C         42.96649        24.31784         0.70787
C         41.66137        24.64160         0.08613
C         42.87280        27.11797         0.95407
C         41.62083        26.25868         0.81592
C         42.85669        28.59688         0.75731
C         41.74934        29.28872        -0.02695
C         42.93869        31.47159         0.36406
C         41.59628        30.73689         0.54300
C         42.92380        32.93985         0.06520
C         41.61825        33.68225         0.07228
C         42.87956        35.85045         0.57090
C         41.60448        35.19066         0.08256
C         42.85491        37.32254         0.83863
C         41.67659        38.07127         0.28071
C         42.88792        40.26420         0.84684
C         41.72701        39.55821         0.22254
C         42.91332        41.73423         0.97949
C         41.75248        42.50128         0.44182
C         42.96607        44.70033         0.90793
C         41.66971        43.97437         0.74741
C         42.92143        46.15035         1.22821
C         41.63609        46.73949         1.39832
C         42.68064        48.84120         0.89390
C         41.51715        48.21134         1.40471
C         44.00289        24.94967         0.92472
C         45.34584        27.07162         0.44004
C         44.25122        26.39710         1.25063
C         45.34201        28.58336         0.27274
C         44.18815        29.35451         0.92629
C         45.41945        31.52004         0.72754
C         44.11977        30.80315         0.47900
C         45.42910        33.01166         0.70253
C         44.26398        33.69399        -0.03223
C         45.37269        35.87414         0.47777
C         44.20045        35.17772         0.37780
C         45.41939        37.34978         0.68261
C         44.15510        38.11034         1.09134
C         45.24718        40.24513         0.12089
C         44.16824        39.55546         0.62244
C         45.30993        41.70845         0.14654
C         44.29973        42.38364         1.08281
C         45.48315        44.66168         0.44253
C         44.26649        43.92600         0.95092
C         45.38040        46.20959         0.32585
C         44.14388        46.93810         0.83919
C         43.73830        48.30684         0.51049
C         47.79732        27.19256         0.02575
C         46.74774        26.64102         0.35549
C         47.88605        28.62507        -0.46726
C         46.68808        29.30490         0.24467
C         48.01536        31.56147         0.39348
C         46.73355        30.76262         0.61819
C         48.02490        33.05467         0.50997
C         46.73824        33.82856         0.87365
C         47.94459        35.99211         0.32947
C         46.66499        35.14604         0.07865
C         47.81774        37.35523        -0.41169
C         46.56356        38.09819         0.05150
C         47.56970        40.20639        -0.96057
C         46.29465        39.43514        -0.62876
C         47.29986        41.66492        -1.37046
C         46.38356        42.40625        -0.38938
C         47.38073        44.51886        -1.20669
C         46.48543        43.86487        -0.35970
C         47.12699        45.92135        -1.20842
C         46.33668        46.71630        -0.67315
C         50.47546        28.97024        -0.32050
C         49.17032        29.37646        -0.22201
C         50.50454        31.63493        -0.40395
C         49.11181        30.92520        -0.47035
C         50.53116        33.09927         0.04847
C         49.20687        33.80082        -0.09845
C         50.46599        36.10707        -0.20808
C         49.18425        35.28796        -0.19849
C         50.36540        37.60570         0.12418
C         49.02608        38.25664        -0.08220
C         50.10600        40.56156        -0.50114
C         48.95646        39.66476        -0.60863
C         49.98171        41.90174        -1.15332
C         48.63060        42.37993        -1.66225
C         49.69504        44.43214        -2.18633
C         48.33151        43.82907        -2.16324
C         51.66766        29.42604        -0.19192
C         52.94955        31.74969        -0.13596
C         51.84890        30.85014        -0.49794
C         52.94103        32.98946        -0.18376
C         51.82467        33.90313         0.12971
C         52.82812        36.39113         0.20038
C         51.80750        35.38308        -0.14216
C         52.78115        37.62069         0.04088
C         51.61239        38.51045         0.16085
C         52.47418        40.94552        -0.58293
C         51.44612        40.00033        -0.12964
C         52.37173        42.07494        -1.07290
C         51.15712        42.95527        -0.93518
C         50.82997        44.07895        -1.86906
O         46.48571        37.99310         1.48796
O         51.18004        31.36958        -1.67645
O         42.58336        40.89195         2.14211
O         31.67098        35.47926        -1.83888
O         35.90617        28.56721        -1.43429
O         49.02052        34.45461        -1.37702
O         33.30717        37.75824        -2.40656
O         49.55451        41.72250        -2.54924
O         42.20778        44.66268        -0.41471
O         34.55146        39.88700        -2.96938
O         38.41258        45.80673         3.07441
O         46.54601        41.54761        -2.55696
O         46.98866        29.72263         1.60677
O         41.52330        42.29307        -0.98084
O         42.59854        36.39183         1.92726
O         45.35944        46.82228         1.61775
O         38.73636        33.49464        -1.39994
O         35.37900        38.30015         0.71648
O         49.53075        38.01976         1.24343
O         33.33236        31.19844         1.62048
O         39.67940        37.95131         1.60486
O         39.69387        28.84273        -1.25765
O         35.40064        43.98930        -2.14343
O         51.57953        39.46668         1.21928
O         38.83578        42.54409        -1.54508
O         42.10550        38.72768        -0.93171
O         51.22730        35.78687        -1.40998
O         48.48961        32.19896         1.60227
O         30.68625        34.51865         1.54811
O         40.95322        35.69344        -1.12632
O         45.17088        32.32299         1.94901
O         45.29462        44.40225         1.85545
O         42.48752        28.05318         2.04767
O         44.96246        27.69902        -0.81168
O         42.17447        33.21673        -1.18034
O         37.63572        28.33229         1.72515
O         51.15420        33.43034         1.32804
O         37.50923        39.85654        -1.93722
O         48.35563        39.57170        -1.98545
O         40.02056        39.76838        -1.39411
O         47.70761        43.72734        -3.41914
H         47.14836        42.88796        -3.40551
O         36.25032        42.34938         1.78681
H         36.03831        42.76215         2.65366
O         37.33489        37.35279         1.80723
H         37.28714        38.26302         2.16959
O         36.41530        30.97847        -1.96562
H         35.99732        30.17146        -2.34902
O         41.76670        24.53870        -1.27457
H         40.94846        24.89486        -1.68869
O         32.06331        42.75678        -1.83358
H         32.30517        43.70345        -1.77375
O         44.58056        26.58093         2.62055
H         43.91408        26.10472         3.16030
O         33.43217        28.62641         1.33558
H         33.08542        29.34966         1.91264
O         46.59555        34.80729        -1.29754
H         46.90456        35.56684        -1.84859
O         44.78651        42.12271         2.41197
H         44.36550        41.29180         2.73444
O         47.78527        37.07262        -1.81125
H         47.68578        37.92765        -2.30537
O         35.02011        33.36310         1.63195
H         34.37839        32.72716         2.03662
O         35.42654        45.50410        -0.01941
H         35.24306        45.25761        -0.97634
O         40.22409        43.64037         2.60890
H         40.86772        43.93159         3.28851
O         34.29064        35.38132        -2.25999
H         33.53044        35.08017        -2.80398
O         40.26323        32.85722         1.90038
H         39.90185        33.69588         2.27372
O         39.35741        26.74840         2.53299
H         38.51990        26.62488         3.02510
O         35.96544        33.49577        -1.65808
H         36.71190        33.54789        -2.29356
O         44.60947        33.56774        -1.42165
H         43.79760        33.73250        -1.95350
O         45.70312        39.12086        -1.90918
H         45.81075        39.95758        -2.45743
O         47.62688        28.62488        -1.86193
H         48.30504        28.08763        -2.32018
O         34.67113        35.95013         1.27386
H         35.26478        36.55229         1.78082
O         48.20740        36.09722         1.72108
H         47.55781        36.70770         2.14205
O         46.80235        34.16985         2.25704
H         46.84811        33.32930         2.76550
O         42.21660        29.33412        -1.37278
H         41.58666        29.89257        -1.88954
O         36.71498        43.64749        -1.59993
H         37.21315        43.23825        -2.35325
O         39.04663        45.00718        -0.56135
H         39.86303        44.91791        -1.10005
O         44.21284        38.26983         2.53220
H         43.91698        37.42267         2.93825
O         41.32875        30.60267         1.94281
H         42.13564        30.28031         2.40132
O         51.06481        43.40872         0.38853
H         51.77461        44.05924         0.56640
O         35.50129        38.86024        -3.31074
H         34.94411        38.20176        -3.79665
O         40.07076        26.42843        -1.04647
H         39.73847        27.14971        -1.63591
O         44.46916        29.44694         2.33498
H         44.54040        28.53105         2.70179
O         29.23538        43.41889         1.73072
H         29.45355        44.24084         2.21175
O         31.86596        38.64283         0.84747
H         31.20652        39.22178         1.28575
O         40.57738        31.48305        -1.51426
H         39.95460        32.13881        -1.91415
O         48.63691        31.07971        -1.81175
H         49.40970        31.03540        -2.42131
O         30.84724        30.22588         0.98228
H         31.22218        29.32498         1.07689
O         41.49228        25.79308         2.16771
H         41.44829        26.57105         2.76682
O         38.88489        35.13165         1.90411
H         38.58817        36.02082         2.22897
