         404
 CSIRO Nanostructure Databank - Neutral Graphene Oxide Data Set
C          1.31682         3.55185        -1.59503
C          0.10033         4.18114        -1.37339
C          1.21644         6.32232        -0.92928
C          0.04577         5.54362        -1.05439
C          1.14361         7.73579        -0.66757
C         -0.05092         8.48954        -0.71679
C          1.12934        10.60640        -0.23791
C         -0.07363         9.84808        -0.44557
C          1.11293        12.02289         0.07466
C         -0.05829        12.77784         0.11822
C          1.12410        14.79808         0.88408
C         -0.07701        14.09629         0.59836
C          1.12297        16.17606         1.33509
C         -0.03188        16.76153         1.89149
C          1.24816        18.73817         2.44122
C          0.05364        18.00346         2.50797
C          1.29823        21.06926         2.53539
C          0.27599        21.96035         2.86459
C          1.14952        23.63167         1.33541
C          0.20382        23.23375         2.27207
C          1.08838        24.93447         0.69245
C         -0.07160        25.69174         0.61310
C          1.10711        27.74109        -0.08619
C         -0.06164        27.04747         0.20107
C          1.14646        29.17232        -0.30902
C         -0.03861        29.91143        -0.53066
C          1.23117        31.97341        -0.83988
C          0.00579        31.26312        -0.81703
C          1.26203        33.39773        -1.15229
C          0.11391        34.10268        -1.57319
C          1.38078        36.16904        -1.83123
C          0.16814        35.45401        -1.89921
C          1.45851        37.56327        -2.17231
C          3.77452         3.65035        -1.70885
C          2.53178         4.28183        -1.48810
C          3.71392         6.38371        -1.03791
C          2.49321         5.67470        -1.13065
C          3.71321         7.75670        -0.51574
C          2.36861         8.46671        -0.32726
C          3.62229        10.70624        -0.49279
C          2.35214         9.92999        -0.27628
C          3.64483        12.04322         0.18440
C          2.35864        12.62494         0.69090
C          3.57594        14.86044         0.71125
C          2.36084        14.13294         0.70712
C          3.53815        16.26521         0.90597
C          2.34496        16.92178         1.30606
C          3.56886        19.13235         1.53003
C          2.37853        18.29764         1.73205
C          3.53290        20.57954         1.44658
C          2.34897        21.37935         1.63206
C          3.59846        23.37707         0.56801
C          2.25274        22.70743         1.00627
C          3.62459        24.89790         0.65817
C          2.33409        25.51052         0.16025
C          3.66043        27.72636        -0.09445
C          2.37146        26.99222        -0.17711
C          3.62831        29.11718        -0.17097
C          2.39834        29.85297        -0.34437
C          3.67456        32.00449        -0.37670
C          2.43092        31.26845        -0.55823
C          3.67987        33.43743        -0.60872
C          2.49633        34.10351        -1.06222
C          3.79916        36.19598        -1.35159
C          2.56048        35.48653        -1.41311
C          3.85203        37.59974        -1.67687
C          2.63958        38.24954        -2.09475
C          6.23934         3.71289        -1.77751
C          4.98433         4.36466        -1.63444
C          6.19677         6.48798        -1.24900
C          4.95756         5.76634        -1.32797
C          6.16966         7.88641        -0.88659
C          4.94456         8.56067        -0.62884
C          6.12091        10.66912        -0.19128
C          4.91356         9.93586        -0.36028
C          6.10538        12.06455         0.11677
C          4.83767        12.74095         0.30133
C          6.06189        14.84553         0.65849
C          4.84355        14.16463         0.57641
C          6.08428        16.31625         0.65496
C          4.75873        17.06126         0.77689
C          6.02969        19.14905         1.20532
C          4.77149        18.47164         1.20008
C          6.02490        20.56021         1.25662
C          4.77374        21.26683         1.14897
C          6.04875        23.41104         0.91350
C          4.81403        22.65378         0.86928
C          6.08218        24.76162         0.54572
C          4.87380        25.47120        -0.03088
C          6.11228        27.69513         0.19539
C          4.90232        27.00162         0.06685
C          6.14175        29.15863         0.16493
C          4.92383        29.86430        -0.37414
C          6.03323        32.05602         0.41321
C          4.83655        31.32454        -0.02598
C          6.06535        33.52138         0.04654
C          4.88801        34.15356        -0.56254
C          6.21964        36.25117        -0.82110
C          4.97103        35.52251        -0.94301
C          6.25821        37.66472        -1.15431
C          5.06038        38.29748        -1.58042
C          8.65429         3.55920        -1.74539
C          7.46155         4.39251        -1.75057
C          8.63448         6.62449        -1.46403
C          7.43263         5.83918        -1.54740
C          8.61729         7.95585        -0.90409
C          7.37630         8.61645        -0.70282
C          8.59032        10.67438        -0.04310
C          7.36785         9.98152        -0.29306
C          8.57635        12.06319         0.28468
C          7.32601        12.75435         0.35443
C          8.54240        14.86066         0.83571
C          7.31674        14.15627         0.63675
C          8.53479        16.28165         1.07968
C          7.32113        17.01821         1.02670
C          8.51381        19.12458         1.40407
C          7.28213        18.41875         1.20319
C          8.50974        20.54999         1.49413
C          7.26182        21.28972         1.36566
C          8.50547        23.44333         1.44532
C          7.24504        22.69006         1.30180
C          8.55774        24.72413         0.72194
C          7.31695        25.56309         0.82116
C          8.54840        27.72387         0.33403
C          7.36303        26.98814         0.30129
C          8.53927        29.14096         0.71422
C          7.28054        29.85742         0.45740
C          8.64418        31.96707         0.38569
C          7.32186        31.32167         0.82040
C          8.65305        33.36608        -0.07032
C          7.38442        34.14115        -0.26121
C          8.62737        36.34565        -0.22552
C          7.37876        35.60896        -0.40885
C          8.69271        37.73460        -0.72621
C          7.48598        38.35619        -1.12068
C         11.16123         3.27694        -1.98985
C          9.91727         3.93683        -2.18824
C         11.10006         6.73545        -1.52369
C          9.87669         6.18122        -1.96934
C         11.05177         7.85682        -0.58345
C          9.80970         8.62924        -0.55860
C         11.07733        10.66500         0.11751
C          9.82814         9.97323        -0.12641
C         11.05297        12.06279         0.41056
C          9.80161        12.75981         0.50636
C         11.02584        14.85904         0.99790
C          9.78625        14.16026         0.78402
C         11.00629        16.26225         1.27734
C          9.76537        16.97113         1.29773
C         10.98036        19.08836         1.60656
C          9.74476        18.39424         1.45655
C         10.96197        20.49985         1.63744
C          9.75637        21.21945         1.58712
C         11.03858        23.36196         1.10029
C          9.80853        22.69814         1.58233
C         11.03095        24.59632         0.48199
C          9.72791        25.10161         0.13857
C         11.07448        27.65217         0.26274
C          9.82183        27.19930        -0.05711
C         11.20883        29.05986         0.84097
C          9.87075        29.84591         0.84876
C         11.11387        31.94112         0.18140
C          9.85859        31.29524         0.48868
C         11.11359        33.36004         0.00989
C          9.92866        34.08782        -0.02707
C         11.18649        36.25116        -0.37493
C          9.93087        35.56216        -0.01646
C         11.16830        37.68096        -0.64952
C          9.93670        38.37465        -0.79832
C         13.70232         3.48141        -1.92485
C         12.41252         3.90557        -2.22381
C         13.56756         6.61885        -1.30892
C         12.33295         6.15900        -1.84582
C         13.58587         7.89741        -0.73624
C         12.36582         8.54967        -0.26106
C         13.53976        10.73586         0.04400
C         12.32614        10.00500        -0.01375
C         13.51628        12.11159         0.35220
C         12.28209        12.77549         0.56038
C         13.51231        14.86216         1.14145
C         12.26747        14.17714         0.88907
C         13.49095        16.25456         1.48216
C         12.24287        16.95456         1.49017
C         13.46955        19.04072         1.81082
C         12.23060        18.36692         1.65792
C         13.52129        20.51467         1.81630
C         12.24031        21.24769         1.68857
C         13.47771        23.17971         0.40845
C         12.23928        22.54858         0.96913
C         13.49184        24.66441         0.22821
C         12.25418        25.36590         0.20850
C         13.50690        27.47790        -0.02534
C         12.26654        26.80562         0.10053
C         13.47133        28.95060        -0.28360
C         12.32509        29.77550         0.11737
C         13.59561        31.85357        -0.24716
C         12.34164        31.17582         0.01638
C         13.68212        33.32296        -0.13612
C         12.39119        34.10800        -0.01802
C         13.59318        36.17530        -0.88503
C         12.35288        35.52511        -0.43210
C         13.61972        37.64881        -0.87015
C         12.39560        38.35137        -0.80086
C         16.09663         3.83321        -2.22702
C         14.86891         4.36059        -1.89583
C         16.08884         6.45708        -0.98160
C         14.79655         5.75620        -1.31667
C         16.10252         7.95712        -0.91213
C         14.81651         8.69073        -0.71391
C         16.01193        10.68711         0.15472
C         14.81630        10.06164        -0.15335
C         16.03450        12.07893         0.52930
C         14.79912        12.90166         0.26417
C         15.97929        14.84197         1.39471
C         14.75785        14.20675         1.01838
C         15.98083        16.23127         1.79351
C         14.71763        16.94017         1.72817
C         15.91903        19.11878         2.15435
C         14.68287        18.34815         1.86459
C         15.97249        20.51287         1.61308
C         14.78183        21.14568         1.35146
C         16.05700        23.11754         0.35397
C         14.75448        22.40384         0.58039
C         15.99833        24.57905        -0.01408
C         14.72134        25.34740         0.07403
C         16.01551        27.48868        -0.13962
C         14.73901        26.76644        -0.06608
C         16.04550        28.91550        -0.28288
C         14.79866        29.67909        -0.50288
C         16.04970        31.84661        -0.41562
C         14.80414        31.15567        -0.39085
C         16.12343        33.27348        -0.58436
C         14.92867        34.00085        -0.53137
C         16.19061        36.18247        -0.85249
C         14.91414        35.42820        -0.88821
C         16.11488        37.62597        -0.95843
C         14.84921        38.28539        -1.00777
C         18.60211         4.14594        -2.76336
C         17.40372         4.47382        -1.97133
C         18.58861         6.71018        -1.43894
C         17.41581         5.83415        -1.28648
C         18.56786         8.03956        -0.89052
C         17.34807         8.61334        -0.50954
C         18.53623        10.66314         0.22794
C         17.27868         9.85858         0.31439
C         18.46421        11.93762         0.96723
C         17.19494        12.70988         0.95670
C         18.41572        14.74220         1.76574
C         17.20658        14.10675         1.33849
C         18.37101        16.07975         2.29929
C         17.17661        16.87495         2.20901
C         18.42978        19.22354         2.41722
C         17.18503        18.36846         2.44911
C         18.44256        20.56276         1.91173
C         17.24077        21.19545         1.41274
C         18.48692        23.29411         0.97359
C         17.27384        22.52034         0.94520
C         18.51320        24.65594         0.54495
C         17.29057        25.33667         0.04709
C         18.48242        27.50739         0.04448
C         17.23810        26.81419         0.05290
C         18.49858        28.91447        -0.17653
C         17.25797        29.61362        -0.24140
C         18.61869        31.81307        -0.65772
C         17.27432        31.08841        -0.24539
C         18.53240        33.17888        -1.20662
C         17.36194        33.95079        -0.95028
C         18.64282        36.09230        -0.92245
C         17.37090        35.40545        -0.95596
C         18.53954        38.24161        -0.78236
C         17.21914        38.52310        -1.10948
C         19.72455         4.90812        -2.69060
C         20.95107         6.96321        -1.93037
C         19.76822         6.18181        -1.99053
C         20.96314         8.21360        -1.31421
C         19.79079         8.79191        -0.79030
C         20.93808        10.94855        -0.09306
C         19.73993        10.12797        -0.19685
C         20.95082        12.13357         0.56433
C         19.75067        12.65120         1.24422
C         20.82494        14.61704         2.25599
C         19.67665        14.05998         1.70937
C         20.74656        15.82811         2.96038
C         19.54227        16.51073         2.99496
C         20.72337        19.57118         3.25752
C         19.54555        18.81205         3.14697
C         20.78070        20.80371         2.63867
C         19.64283        21.33404         1.98283
C         20.87049        23.45063         1.47923
C         19.67489        22.69016         1.47249
C         20.88918        24.76075         1.05058
C         19.70783        25.39438         0.59034
C         20.91973        27.49009        -0.01572
C         19.71954        26.80090         0.19466
C         20.92566        28.83248        -0.40210
C         19.73503        29.56670        -0.48191
C         20.70672        31.37289        -1.87564
C         19.72947        30.92390        -1.00336
C         20.66485        32.69114        -2.37192
C         19.64420        33.56939        -2.02308
C         20.85404        36.79175        -1.86154
C         19.75558        35.91267        -1.74380
C         20.84910        38.16998        -1.56775
C         19.71598        38.90521        -1.22292
O          9.17762        23.35298         2.75363
O         12.92751        21.21810         2.98442
O          2.69614        22.78745        -0.38502
O         13.20450        33.86675         1.18377
O         16.33758        18.87594         3.54722
O          5.42649        16.88616        -0.53137
O          9.12406        29.46451         2.04533
O          1.30508        19.88060         3.25597
O         13.98999        29.23293        -1.63733
O         11.67118         7.69688         0.72977
O         14.12496        35.61582        -2.14862
O          9.93207         5.16491        -2.90725
O         12.57950        22.43153        -0.47409
O         19.49664        17.61288         3.85578
O          5.77484        33.11369         1.42068
O          9.21426        36.15611         1.11890
O         18.74956        37.10935         0.03918
O         19.75159        34.82225        -2.63235
O         18.18515        31.68640         0.72370
O         16.76637        24.81892        -1.23930
O          3.11307         7.86286         0.81798
O          2.33110        25.93692        -1.23191
O         19.14839        11.77310         2.28062
O         15.47378         8.62141        -2.07489
O         17.69316         4.62219        -0.52996
O         12.36537         5.18954        -2.83075
O          9.71932        26.06345        -0.87151
O         15.47481        22.27279        -0.69308
O         15.34647         5.79241         0.06863
O          7.98778        33.50153        -1.46331
O          7.21593        25.85430         2.27942
H          7.46121        25.04032         2.77281
O         11.64590        28.95391         2.22160
H         10.82831        28.95735         2.77400
O          3.56581        11.02539        -1.95720
H          4.32893        11.61165        -2.15390
O          4.85657        25.13458        -1.43673
H          3.95842        25.36885        -1.78435
O          7.34746        31.33010         2.27445
H          6.94246        32.18130         2.56288
O         14.91212        13.29477        -1.16607
H         14.12329        13.83814        -1.37950
O         17.22979         9.39391         1.72620
H         17.78829         9.99859         2.26553
O          5.12546        29.84780        -1.84309
H          5.11876        28.90900        -2.12987
O          2.29503        12.22540         2.12713
H          1.46595        12.60329         2.49195
O          3.74658        25.23743         2.06252
H          2.93026        24.95454         2.52690
H          1.35269         2.48456        -1.85594
H         -0.83479         3.60934        -1.45294
H         -0.93682         6.00499        -0.88638
H         -1.00146         7.98795        -0.94695
H         -1.04159        10.36701        -0.44974
H         -1.00736        12.34023        -0.22348
H         -1.04039        14.62071         0.65253
H         -0.97436        16.19978         1.93502
H         -0.79921        18.41523         3.06269
H         -0.45992        21.66389         3.62215
H         -0.60891        23.91510         2.55863
H         -1.02743        25.25787         0.93899
H         -1.01985        27.58456         0.22238
H         -1.01200        29.40327        -0.52035
H         -0.93876        31.78782        -1.01108
H         -0.85092        33.58549        -1.66079
H         -0.74543        35.97230        -2.22476
H          0.54034        38.07646        -2.49405
H          3.79643         2.57521        -1.94174
H          2.67727        39.31852        -2.35083
H          6.24322         2.62057        -1.90999
H          5.08771        39.36622        -1.84121
H          8.51884         2.52801        -1.38458
H          7.51361        39.40716        -1.44609
H         11.15378         2.30078        -1.48506
H          9.97174        39.43515        -1.08992
H         13.87498         2.42081        -1.68737
H         12.40388        39.44726        -0.89678
H         16.12517         2.82031        -2.65883
H         14.85643        39.38352        -1.08183
H         18.57898         3.25416        -3.40767
H         16.99849        39.51130        -1.54091
H         20.62400         4.60582        -3.24798
H         21.88175         6.56019        -2.35501
H         21.91473         8.76073        -1.26464
H         21.85959        10.60416        -0.58262
H         21.85873        12.75438         0.54971
H         21.77417        14.06551         2.22666
H         21.60985        16.21357         3.51664
H         21.57012        19.18400         3.83793
H         21.70389        21.39010         2.71912
H         21.81082        23.00811         1.83067
H         21.83398        25.31796         1.09244
H         21.88132        26.96681         0.06734
H         21.88485        29.32059        -0.62252
H         21.52843        30.71116        -2.18036
H         21.44698        33.04248        -3.05634
H         21.71558        36.41286        -2.43083
H         21.75155        38.73166        -1.85323
H         19.69277        39.98479        -1.43078
