         276
 CSIRO Nanostructure Databank - Neutral Graphene Oxide Data Set
C        -11.08531         0.79342        -1.08156
C         -9.75909         1.48673        -0.84376
C         -8.90159         0.79011         0.20370
C         -7.65351         1.52719         0.60011
C         -6.40118         0.74078         0.31677
C         -5.06394         1.44086         0.20016
C         -3.78426         0.65666         0.27424
C         -2.38701         1.29143         0.27897
C         -1.37453         0.72271         1.26198
C         -0.06060         1.45433         1.10780
C          1.22137         0.71281         1.27983
C          2.51062         1.48970         1.38053
C          3.68767         0.75871         0.78583
C          4.99332         1.50265         0.71577
C          6.14889         0.79594         0.01338
C          7.48077         1.53554         0.13504
C          8.62859         0.80146        -0.48541
C          9.68157         1.57701        -1.21007
C         10.88266         0.79410        -1.62498
C         -9.73975         2.99975        -0.76458
C         -8.68714         3.70830        -0.28772
C         -7.65478         3.07908         0.65866
C         -6.24784         3.74954         0.57434
C         -4.95068         2.90345         0.59446
C         -3.72709         3.55098        -0.09152
C         -2.43257         2.83319         0.15699
C         -1.38658         3.70542         0.87220
C         -0.09564         2.96393         1.26716
C          1.18381         3.73968         1.43737
C          2.49563         2.98882         1.32321
C          3.56102         3.64878         0.44548
C          4.93751         2.98803         0.58518
C          6.09478         3.63526        -0.13222
C          7.44951         3.01061        -0.02274
C          8.59711         3.75857        -0.61744
C          9.65622         3.07492        -1.12047
C         -8.68864         5.20700        -0.35814
C         -7.44645         6.00151        -0.04249
C         -6.18933         5.22540         0.28502
C         -4.92151         5.85149        -0.23274
C         -3.69114         5.03421        -0.35122
C         -2.33553         5.68550        -0.49337
C         -1.13741         5.01450         0.10854
C          0.01271         5.88256         0.54403
C          1.19274         5.25148         1.21978
C          2.52440         5.98265         1.12896
C          3.68151         5.15785         0.65982
C          4.78027         5.80551        -0.11938
C          5.97953         5.04431        -0.56350
C          7.19166         5.91866        -0.93589
C          8.52695         5.27177        -0.41806
C         -7.26401         7.43908        -0.39503
C         -6.07497         8.09495        -0.29236
C         -4.78344         7.35437         0.02277
C         -3.59135         7.94423        -0.78026
C         -2.30591         7.16070        -0.82501
C         -0.99317         7.90599        -0.74083
C          0.22485         7.14579        -0.26148
C          1.51572         7.89564        -0.17469
C          2.42924         7.53265         0.99165
C          3.77663         8.39390         1.07811
C          4.99799         7.25903         0.02334
C          6.63532         8.48688        -1.10290
C          6.90407         7.31223        -0.34610
C         -5.95434         9.55106        -0.30212
C         -4.75510        10.17702        -0.38374
C         -3.52196         9.44461        -0.77130
C         -2.19103        10.07484        -0.61699
C         -1.02631         9.38303        -0.52176
C          0.27645        10.10088        -0.15304
C          1.48954         9.32711        -0.74410
C          2.82312        10.02954        -0.58872
C          3.88251         9.56484         0.10443
C          5.19578        10.25840         0.03662
C          6.36742         9.79929        -0.45012
C        -11.18263        -0.55057        -1.06082
C        -10.12279        -1.42293        -0.46831
C         -8.96232        -0.72597         0.18397
C         -7.71939        -1.50263         0.50820
C         -6.42377        -0.75956         0.29936
C         -5.15109        -1.50009         0.63646
C         -3.80770        -0.83343         0.49599
C         -2.58857        -1.55194         1.00109
C         -1.38072        -0.76231         1.48162
C         -0.07885        -1.52748         1.68614
C          1.24258        -0.75863         1.64649
C          2.53056        -1.49193         1.38156
C          3.69669        -0.73418         0.78386
C          5.04253        -1.41052         0.79847
C          6.28368        -0.64278         0.48801
C          7.56596        -1.39602         0.20354
C          8.81920        -0.64167        -0.10314
C         10.10484        -1.35976        -0.52832
C         10.95581        -0.54428        -1.48758
C         -9.95033        -2.85176        -0.84057
C         -8.87362        -3.59138        -0.46413
C         -7.71212        -2.98141         0.24168
C         -6.36451        -3.65758        -0.01726
C         -5.19650        -2.99155         0.72017
C         -3.90337        -3.77374         0.87444
C         -2.64836        -3.04833         1.26534
C         -1.32359        -3.70164         0.94069
C         -0.06073        -3.00966         1.39289
C          1.22538        -3.71345         1.00745
C          2.52591        -2.97065         1.05913
C          3.85632        -3.69477         1.12573
C          5.10372        -2.91663         0.81887
C          6.20085        -3.58812         0.01878
C          7.40565        -2.75002        -0.48492
C          8.71886        -3.51805        -0.59019
C          9.87535        -2.83549        -0.83423
C         -8.70468        -5.02883        -0.93350
C         -7.75106        -5.89243        -0.06127
C         -6.43924        -5.15635         0.28026
C         -5.14227        -5.89953         0.39027
C         -3.84279        -5.12397         0.15041
C         -2.61319        -5.91368         0.61705
C         -1.30889        -5.15647         0.57626
C         -0.00538        -5.95215         0.35480
C          1.23193        -5.22716         0.94581
C          2.55362        -5.91767         0.79785
C          3.88298        -5.20494         0.95029
C          5.14932        -5.90915         0.54423
C          6.26652        -5.08163        -0.03795
C          7.57122        -5.73840        -0.35164
C          8.66988        -4.98030        -0.62579
C         -7.50688        -7.23671        -0.72013
C         -6.37632        -8.07300        -0.38793
C         -5.12800        -7.39031         0.15948
C         -3.80079        -8.03858        -0.13861
C         -2.60668        -7.40857         0.51678
C         -1.30450        -8.18805         0.55281
C         -0.01932        -7.44268         0.74359
C          1.26597        -8.30334         0.58165
C          2.60347        -7.08629        -0.16099
C          3.78209        -7.99301        -0.19947
C          5.10390        -7.33280         0.03904
C          6.25796        -7.85077        -0.80792
C          7.60166        -7.26971        -0.32020
C         -6.22236        -9.44460        -0.93817
C         -5.05329       -10.11363        -0.92283
C         -3.75505        -9.45304        -0.60665
C         -2.53791       -10.31452        -0.26373
C         -1.24546        -9.52681        -0.11175
C         -0.08032       -10.03051        -0.61112
C          1.23366        -9.39048        -0.48270
C          2.34920        -9.87506        -1.09667
C          3.69089        -9.15619        -1.18630
C          4.96205        -9.97600        -1.04345
C          6.15115        -9.36865        -0.87205
O          1.32502         6.90831        -1.22114
O          5.73126         3.97082        -1.53645
O          4.37277         6.80709        -1.11892
O          1.81177        -5.98305         2.03801
O          4.52481        -8.25363         1.00347
O         -2.93391         3.02557        -1.20062
O          2.15961        -1.09085         2.72295
O          3.54818         5.54198         2.06047
O         -6.11802         4.76158         1.64692
O         -7.88140        -2.45386         1.58557
O         -1.73159         0.19725         2.54813
O         -5.88837        -5.50858         1.57637
O          5.87433        -0.83751         1.86598
O         -4.40091         1.02710        -1.00925
O         -8.65175         1.11983         1.58783
O         -5.97278        -8.08396         1.08742
O          1.83646        -3.18921        -0.22086
O          5.27795         2.36274         1.84239
O          5.66279        -4.31184        -1.13884
O         -1.32234        -4.09735        -0.46365
O          4.78809        -3.34299         2.17855
O         -0.71417        -7.96631         1.88737
O         -1.52858         7.45286        -2.01704
O          0.16388         5.95067         1.98624
O          8.51317        -1.08092         1.26700
O          3.38340         0.00706        -0.43852
O          2.84768         2.28545         2.53989
O          4.78156        -5.80671         1.93569
O         -0.12922        -2.51862         2.75358
O         -6.54346        -0.04565        -0.94652
O          1.84856        -8.63241         1.66071
O         -1.36308         4.95077        -1.30992
O          7.73756         2.37779         1.27690
O         -3.43040        -3.72156         2.26305
O          0.66057         0.95457        -0.05416
O          8.52506         0.99908        -1.93437
O         -2.87198        -1.46031        -0.44184
O         -3.51036        -8.33867        -1.54298
O          0.38912         3.35091         2.58894
O         -8.15565         3.38304         1.96880
O          7.13965        -2.38864        -1.82033
O         -3.83473         8.64436        -1.99942
O         -5.40183        -2.18965         1.90259
O         -2.88159        -6.73433         1.77809
O        -10.08400        -1.19476         0.98925
O          4.21934         8.54614         2.24108
O         -4.54332         5.36758        -1.53458
O         -4.41188         7.52238         1.35178
O          6.04578        -7.33122        -2.15074
H          6.91700        -7.34796        -2.60611
O         -3.76142        -4.91908        -1.26579
H         -3.00030        -4.32226        -1.45554
O         -2.04787         4.07739         2.10021
H         -1.34606         4.32094         2.75188
O          0.07541        -6.03691        -1.08051
H         -0.04475        -5.13199        -1.45123
O          7.25900         5.97172        -2.37578
H          6.83666         5.14449        -2.71190
O          3.69149        -8.58948        -2.54103
H          4.58803        -8.17604        -2.68954
O          6.48967         8.45767        -2.39886
H          6.67663         7.53621        -2.73724
O          2.29361        -6.68826        -1.41455
H          2.63291        -7.34229        -2.09524
O         -6.04663        -3.47024        -1.41172
H         -6.75544        -3.88563        -1.96534
O         -4.56875         2.80149         1.98820
H         -4.78576         3.65603         2.43200
O         -8.43957        -6.17634         1.17438
H         -7.74798        -6.37497         1.84932
O         -2.80704       -11.00148         0.96740
H         -2.64424       -10.39439         1.71950
O          0.38444        10.25096         1.25961
H          0.71444         9.41246         1.67443
O         -8.52886         5.83971         0.94061
H         -8.17790         4.36745         2.05719
O          5.84881         0.80118        -1.39299
H          4.98163         0.35272        -1.53562
O          8.58186         5.53170         0.98639
H          9.08228         4.81987         1.43595
O         -8.98629         1.19407        -2.06687
H         -9.48200         1.54969        -2.83426
O          1.24782         9.26444        -2.16101
H          1.20065         8.31075        -2.41528
O          3.10150         3.41951        -0.90238
H          3.83523         3.63830        -1.52773
O         10.96157        -1.41554         0.65625
H         10.36423        -1.55832         1.42823
O          1.73190         7.99329         2.16840
H          2.43436         8.13283         2.85439
O         -1.78303         0.85008        -0.96042
H         -2.36738         1.16032        -1.69066
O          8.61164        -7.79645        -1.17557
H          9.49096        -7.53790        -0.83289
O         -8.18057        -4.97542        -2.27683
H         -8.03287        -5.89185        -2.59366
H         11.82803        -1.06840        -1.90847
H         11.64444         1.31871        -2.22349
H         10.53029         3.62417        -1.50705
H          9.39368         5.76633        -0.94258
H          7.29204         7.46294         0.67507
H          7.23481        10.48128        -0.43267
H          5.20354        11.29152         0.42719
H          2.95443        10.90893        -1.24025
H          0.25200        11.12758        -0.59773
H         -2.17683        11.16008        -0.42639
H         -4.69465        11.27159        -0.28639
H         -6.86965        10.14246        -0.14588
H         -8.18820         8.01559        -0.55950
H         -9.47690         5.66937        -0.99246
H        -10.53598         3.53488        -1.31174
H        -11.93294         1.39691        -1.44381
H        -12.12857        -1.03331        -1.35439
H        -10.74409        -3.32470        -1.44093
H         -9.70683        -5.53639        -0.95796
H         -8.32765        -7.69043        -1.29945
H         -7.13902        -9.95471        -1.27116
H         -5.01868       -11.16375        -1.24925
H         -2.40767       -11.09811        -1.05323
H         -0.11220       -10.99050        -1.15323
H          2.24461       -10.75306        -1.75615
H          4.90270       -11.07235        -1.11403
H          7.07497        -9.96254        -0.80441
H          7.78586        -7.61068         0.74108
H          9.62157        -5.48964        -0.85520
H         10.79569        -3.41762        -1.01283
