         280
 CSIRO Nanostructure Databank - Neutral Graphene Oxide Data Set
C         30.35113        31.51679         1.62124
C         30.27812        32.75441         1.57736
C         30.26437        35.98105         0.41008
C         30.30038        37.16357         0.06187
C         30.24350        40.35400        -0.27530
C         30.18423        41.59251        -0.38810
C         32.80812        28.67396         1.10081
C         31.77155        29.25676         1.43326
C         32.78495        31.48038         1.48074
C         31.51711        30.65451         1.79184
C         32.64531        32.94569         1.06328
C         31.31162        33.66946         1.05029
C         32.57196        35.95474         1.11810
C         31.27034        35.16680         1.11465
C         32.65495        37.37007         0.50876
C         31.46870        38.03188        -0.17496
C         32.67712        40.34944        -0.00882
C         31.41838        39.49993        -0.60303
C         32.52329        41.83186         0.34143
C         31.15054        42.55241         0.14048
C         32.47959        44.60150        -0.11952
C         31.42478        43.95924        -0.15440
C         35.52460        27.20976         0.20160
C         35.39725        28.63948         0.53213
C         34.19565        29.28275         1.21649
C         35.03785        31.53879         0.11070
C         33.94764        30.75405         0.80005
C         35.15249        32.99057         0.54411
C         33.94572        33.70667         1.09760
C         35.16637        35.98347         0.91188
C         33.90421        35.22667         1.18915
C         35.14316        37.47418         0.67790
C         33.83867        38.19501         1.03138
C         35.08954        40.44065         1.00910
C         33.88697        39.64292         0.53976
C         35.08475        41.91082         0.70829
C         33.78386        42.66094         0.52252
C         35.11269        44.87965         0.17012
C         33.81432        44.19230         0.35420
C         35.47777        46.21259         0.25518
C         37.53899        27.12737        -1.20318
C         36.37993        26.62689        -0.46176
C         37.54911        28.67456        -1.05089
C         36.45088        29.40120        -0.25709
C         37.58938        31.64735        -0.58444
C         36.22959        30.87257        -0.63572
C         37.66321        33.01806         0.05274
C         36.36009        33.78668         0.11829
C         37.68924        35.95342         0.61252
C         36.37377        35.26309         0.36125
C         37.71885        37.42694         0.88756
C         36.43732        38.22165         0.78985
C         37.70990        40.47261         0.92044
C         36.42982        39.70146         1.10497
C         37.57032        41.67315        -0.02695
C         36.32386        42.56638         0.14780
C         37.71105        44.72067        -0.09529
C         36.34088        44.05969        -0.12182
C         37.84290        46.23977         0.06143
C         36.51835        46.87776        -0.10011
C         40.12723        24.35391        -1.33662
C         39.05853        24.97136        -1.35761
C         40.13602        27.14857        -1.40358
C         38.79194        26.40395        -1.56490
C         40.15003        28.60821        -0.98908
C         38.86709        29.41399        -1.12382
C         40.23666        31.64624        -0.77172
C         38.88728        30.92407        -0.87415
C         40.23456        33.12607        -0.50812
C         38.96711        33.76335         0.04178
C         40.21172        36.05203         0.04822
C         38.92770        35.27769         0.08033
C         40.25789        37.54562         0.27333
C         39.01268        38.20421         0.79474
C         40.30942        40.47704         0.63016
C         39.01712        39.70035         0.86029
C         40.23023        41.78570        -0.08693
C         38.89719        42.44137        -0.33839
C         40.20560        44.67653        -0.51246
C         38.85923        43.93639        -0.74172
C         40.15518        46.09856        -1.00708
C         39.15341        46.98224        -0.19962
C         40.18949        48.76088        -1.37667
C         39.07597        48.26236        -1.03165
C         42.72938        24.30564        -1.38337
C         41.42166        24.59134        -1.97474
C         42.72050        27.13327        -1.28218
C         41.45394        26.44791        -1.69399
C         42.76414        28.69702        -1.19424
C         41.46001        29.34712        -0.71798
C         42.82434        31.58128        -0.60161
C         41.49550        30.83845        -0.56591
C         42.81845        33.04375        -0.26019
C         41.54335        33.85614        -0.29324
C         42.77044        36.00283         0.52294
C         41.53581        35.32436         0.00182
C         42.83514        37.49202         0.49818
C         41.56346        38.28477         0.33605
C         42.98781        40.47597         0.44035
C         41.63212        39.76296         0.67215
C         42.86843        41.81556        -0.29473
C         41.53539        42.48882        -0.38510
C         42.76046        44.56520        -1.06416
C         41.52295        43.97968        -0.41829
C         42.56285        45.78787        -1.92328
C         41.33479        46.69877        -1.75411
C         42.75795        48.66730        -1.49762
C         41.44459        48.22017        -1.67181
C         43.75788        24.93354        -1.08937
C         44.97913        26.97132         0.02825
C         43.68787        26.28029        -0.40983
C         45.08209        28.47724         0.25118
C         44.05251        29.30576        -0.48395
C         45.23976        31.49631         0.37274
C         44.09292        30.79646        -0.32715
C         45.37478        33.01708         0.04645
C         44.03635        33.70585         0.32542
C         45.35074        35.90860         0.31206
C         44.03955        35.19190         0.52628
C         45.38402        37.36949        -0.04302
C         44.08772        38.14969        -0.02312
C         45.36124        40.43616        -0.50840
C         44.08563        39.63402        -0.19859
C         45.34937        41.86637         0.05657
C         44.12013        42.64183        -0.33357
C         45.41936        44.73371        -0.70820
C         44.10764        43.95885        -0.69751
C         45.39019        46.26915        -0.68861
C         44.50957        47.01443        -1.43094
C         43.92211        48.29757        -1.19567
C         47.40436        27.13355        -0.30317
C         46.35665        26.49217        -0.19484
C         47.80489        28.42606         0.27335
C         46.46679        29.14014         0.77951
C         47.80799        31.42525         0.58895
C         46.46661        30.69252         0.71270
C         47.83039        32.93786         0.52701
C         46.51622        33.63981         0.90801
C         47.84421        35.98403         0.94321
C         46.56844        35.19894         0.84690
C         47.85547        37.50908         0.76481
C         46.62423        38.20211         0.23094
C         47.97103        40.37191        -0.03409
C         46.68321        39.63978        -0.26518
C         47.98739        41.83296         0.45500
C         46.63860        42.58645         0.27371
C         47.90389        44.80117         0.35625
C         46.66580        44.04158        -0.15161
C         47.65348        46.25009         0.26902
C         46.54044        46.73230         0.01429
C         50.39469        28.93527        -0.40530
C         49.09264        29.18151         0.24389
C         50.38252        31.46197         0.72921
C         49.10921        30.65786         0.70549
C         50.32568        32.94488         1.10282
C         49.12246        33.72715         0.65982
C         50.39446        35.95189         1.22180
C         49.14014        35.22320         0.79809
C         50.46592        37.38846         0.69533
C         49.21406        38.24094         0.96212
C         50.55741        40.35425         0.29377
C         49.25889        39.60455         0.24845
C         50.53250        41.87113         0.35023
C         49.22869        42.57627        -0.13722
C         50.56234        44.61199         0.13237
C         49.20720        44.07587         0.27756
C         51.46929        29.52532        -0.23175
C         52.77562        31.60355         0.80194
C         51.69324        30.99067        -0.05577
C         52.70907        32.76251         1.23579
C         51.59274        33.65709         1.56825
C         52.82481        35.97742         1.25891
C         51.64040        35.16020         1.58334
C         52.82993        37.20509         1.10425
C         51.79441        38.12153         0.60715
C         52.93846        40.45885         0.28493
C         51.82022        39.61599         0.87348
C         52.96885        41.68398         0.14159
C         51.86488        42.63343         0.31838
C         51.63465        44.02641        -0.08819
O         45.49259        36.36141        -1.07811
O         39.55491        41.66270        -1.37833
O         34.76927        35.68771         2.28238
O         51.14045        37.58556        -0.56736
O         37.14613        40.29268         2.23159
O         32.41293        31.11607         2.82851
O         33.66228        43.59162         1.65730
O         43.95276        34.25953         1.65569
O         42.40020        44.51769        -2.52637
O         47.82713        32.15436        -0.68998
O         36.62258        29.13063         1.16350
O         47.56519        39.97820        -1.37359
O         33.77886        39.96561        -0.88032
O         41.07476        40.37346         1.87181
O         51.16639        42.36064         1.57157
O         37.97793        45.32130         1.19446
O         36.17225        34.72764        -0.97714
O         31.75897        35.79615         2.32028
O         37.78364        36.44998         1.97562
O         50.09769        39.76416        -0.94185
O         43.77332        46.33931        -2.41872
O         48.52180        44.28980         1.53885
O         33.83881        31.11451        -0.59651
O         38.48337        33.10866         1.25624
O         49.32100        34.59038        -0.50656
O         43.04483        32.55639        -1.64102
O         42.14635        41.84541        -1.54837
O         36.06576        43.12169        -1.19714
O         40.89710        44.55163         0.76964
O         44.68580        27.57367         1.30853
O         40.27913        32.60627        -1.86172
O         45.77581        42.22346         1.40447
O         38.02481        29.21021        -2.30210
O         39.20926        38.88895         2.05614
O         50.80022        35.76509         2.60018
O         35.79432        37.95727        -0.51284
O         42.43050        26.81397        -2.68655
O         40.14056        46.22723        -2.44406
O         47.06257        35.67996         2.13403
O         43.72902        38.77822        -1.30553
O         39.41145        35.82373        -1.16390
O         40.84686        38.15232        -0.92417
O         48.75581        28.32986         1.34976
O         46.45242        44.18847        -1.58804
O         40.08647        27.55762         0.01895
O         35.03519        41.40437         2.08144
O         45.51767        31.14617         1.73909
O         31.58957        42.12565         1.43280
O         41.76360        34.85875        -1.35203
O         42.76820        36.78310         1.76771
O         38.14445        31.63084        -1.91509
O         41.45559        29.95347         0.60141
O         37.82142        26.73626        -2.56404
O         31.90285        33.16532        -0.17605
O         46.88859        38.14489         1.66777
O         44.69265        30.14243        -1.49826
O         49.94605        30.71889         1.89287
O         32.50340        37.32937        -0.93498
O         34.92168        33.11516         1.98741
O         50.65632        33.12246         2.51723
O         51.85771        39.77072         2.26915
H         51.79744        40.73303         2.48143
O         46.28389        33.31839         2.27958
H         46.56315        34.07444         2.84475
O         39.76256        47.26393         1.04418
H         39.08140        47.33014         1.74501
O         34.49550        29.33946         2.59842
H         34.82357        28.46900         2.90420
O         49.30882        38.52335         2.36915
H         48.41204        38.72833         2.71785
O         35.79976        30.87716        -1.99807
H         36.59115        30.75790        -2.57690
O         42.90730        26.07489         0.76653
H         43.47678        25.73375         1.48763
O         49.19359        42.51189        -1.55654
H         49.26519        41.57327        -1.84740
O         38.59623        43.97897        -2.14615
H         39.16361        43.30869        -2.59026
O         43.53316        40.76501         1.74249
H         42.78762        40.94594         2.36221
O         51.67430        31.63199        -1.30192
H         52.44708        31.35205        -1.83379
O         46.51322        28.84663         2.16724
H         45.85451        29.40471         2.63499
O         42.78673        29.16848        -2.54422
H         43.57566        28.82375        -3.01231
O         48.23889        41.69627         1.86330
H         47.41916        41.92167         2.35922
O         37.26895        40.92966        -1.23554
H         37.09215        41.57342        -1.95921
O         45.68390        33.22823        -1.32503
H         44.92898        32.91841        -1.88034
O         33.73303        38.28723         2.45624
H         33.90570        37.40136         2.85601
O         31.54848        39.52359        -2.00919
H         32.24801        38.88325        -2.26803
O         45.29770        40.72075        -1.91402
H         44.99341        39.91502        -2.38939
O         41.35771        24.41151        -3.32902
H         42.21810        24.63819        -3.73731
