         252
 CSIRO Nanostructure Databank - Neutral Graphene Oxide Data Set
C         30.26231        31.61463         0.18420
C         30.32322        32.87419         0.03032
C         30.43636        36.10866        -0.08737
C         30.34536        37.34457        -0.17758
C         30.53696        40.47222         0.31318
C         30.38593        41.71013         0.68089
C         32.72406        28.76342        -0.05228
C         31.63692        29.39498         0.12236
C         32.67122        31.55892        -0.42215
C         31.33998        30.73970         0.06262
C         32.72977        32.95143         0.26374
C         31.41948        33.76533         0.07823
C         32.75075        35.87533         0.29580
C         31.46176        35.13340         0.06571
C         32.75300        37.38383         0.25042
C         31.59388        38.19774        -0.38467
C         32.74384        40.20411         0.96247
C         31.54016        39.58300         0.19010
C         32.82374        41.74260         0.82555
C         31.52367        42.46902         0.92285
C         32.83681        44.43881         1.07386
C         31.72952        43.86587         1.12994
C         35.45002        27.22650        -0.27228
C         35.22435        28.63853        -0.29356
C         34.02121        29.33189        -0.16981
C         35.17176        31.50540        -0.22578
C         33.98706        30.80237        -0.23084
C         35.19574        32.96240        -0.50400
C         33.92486        33.75708        -0.25179
C         35.13943        35.97785        -0.58334
C         34.03469        35.17535         0.13119
C         35.24206        37.40599        -0.03983
C         34.07886        38.06818         0.27165
C         35.34627        40.24413         0.52857
C         34.07107        39.47748         0.71893
C         35.24760        41.69975         0.12209
C         34.03227        42.41473         0.72325
C         35.33177        44.56032         0.84425
C         34.13445        43.87515         0.87702
C         35.61526        45.91238         1.15597
C         37.79186        27.19256         0.18109
C         36.50909        26.57161        -0.33888
C         37.71453        28.65767        -0.29977
C         36.50672        29.33336        -0.32766
C         37.75963        31.55821         0.00511
C         36.46926        30.80142        -0.07386
C         37.77274        33.09606         0.07611
C         36.50704        33.70638        -0.55036
C         37.76554        35.87157        -0.21923
C         36.47333        35.20100        -0.59858
C         37.77724        37.35705        -0.08182
C         36.50538        38.12218        -0.03456
C         37.81860        40.21913         0.16162
C         36.55739        39.49628         0.12863
C         37.84560        41.63374         0.39660
C         36.59771        42.41739         0.26755
C         37.92953        44.47123         1.10732
C         36.65475        43.88764         0.59069
C         37.92683        45.88031         1.65624
C         36.64941        46.57311         1.36048
C         40.38102        24.45463         0.03654
C         39.30543        25.12230        -0.00996
C         40.32646        27.19265        -0.09364
C         39.08948        26.49719        -0.09702
C         40.30539        28.65378        -0.38334
C         38.99040        29.37299        -0.55549
C         40.25991        31.60549        -0.39824
C         38.94344        30.89876        -0.68811
C         40.25809        32.98916        -0.60575
C         39.03382        33.75546        -0.49881
C         40.20972        35.93882        -0.97448
C         39.01508        35.13315        -0.59708
C         40.18429        37.41190        -0.69804
C         39.04423        38.08667        -0.31698
C         40.22308        40.27797        -0.14491
C         39.02248        39.51932        -0.04858
C         40.27008        41.66428         0.18658
C         39.06088        42.34446         0.54798
C         40.44054        44.34925         1.32022
C         39.09796        43.73943         1.00225
C         40.58241        45.84848         1.72833
C         39.21641        46.58398         1.89767
C         40.38881        48.65845         1.24563
C         39.47092        48.02278         1.77155
C         42.96503        24.58059         0.26951
C         41.63003        25.07980         0.10966
C         42.79766        27.33839         0.12238
C         41.58614        26.52993         0.00973
C         42.75570        28.73201         0.17539
C         41.52185        29.44928        -0.09073
C         42.68025        31.59375         0.21656
C         41.45419        30.84179        -0.11202
C         42.72805        33.05359        -0.36056
C         41.54684        33.64051        -1.12309
C         42.80025        35.98712        -1.05450
C         41.52736        35.20990        -1.20484
C         42.78246        37.42739        -0.71332
C         41.46872        38.16548        -0.66220
C         42.40337        40.48754        -1.09392
C         41.36574        39.65254        -0.70062
C         42.62210        41.76607        -0.53117
C         41.52326        42.34311         0.11243
C         42.73635        44.50895         0.11130
C         41.67131        43.67046         0.75462
C         42.41438        45.80993        -0.15248
C         41.62718        46.63577         0.81072
C         42.62764        48.74790        -0.20498
C         41.70584        48.18756         0.79657
C         44.00217        25.23913         0.37647
C         44.98898        27.38241         1.33463
C         44.22649        26.70530         0.20089
C         45.14541        28.86708         0.92969
C         43.98972        29.50351         0.47185
C         45.14965        31.77535         0.80461
C         43.94415        30.92082         0.44285
C         45.22254        33.00487        -0.09180
C         44.06884        33.41688        -0.73330
C         45.27957        35.96582        -0.62495
C         44.06253        35.43797        -1.20724
C         45.26811        37.37978        -0.39783
C         44.12526        38.08608        -0.76892
C         45.34610        40.26647        -0.73466
C         44.31787        39.45283        -1.11227
C         45.27146        41.74511        -1.07741
C         44.02292        42.37900        -0.32174
C         45.19039        44.66928        -0.90107
C         43.90278        43.87761        -0.59035
C         45.19556        46.20423        -0.79753
C         44.10179        46.98997        -1.05275
C         43.71784        48.30539        -0.62194
C         47.44769        27.51331         1.65135
C         46.38814        26.90005         1.53644
C         47.71500        28.89386         1.12718
C         46.36895        29.64240         1.40990
C         47.67541        31.64793         0.56350
C         46.47635        31.03637         0.83803
C         47.69127        33.00481        -0.06694
C         46.41704        33.76657        -0.17090
C         47.68075        35.88134         0.06373
C         46.42594        35.17255        -0.36125
C         47.67657        37.34748         0.37182
C         46.41379        38.12661         0.15513
C         47.71514        40.41667         0.04551
C         46.44110        39.66260         0.03274
C         47.74539        41.76551        -0.27769
C         46.52645        42.50296        -0.65563
C         47.75684        44.59985        -0.48640
C         46.49049        43.88931        -0.70570
C         47.56519        46.01719        -0.48093
C         46.51267        46.67076        -0.50133
C         50.21605        29.03217         1.49837
C         48.88868        29.69482         1.67826
C         50.17895        31.56728         0.42156
C         48.98888        31.01559         0.82080
C         50.27806        32.96245        -0.11324
C         48.98524        33.70621        -0.33477
C         50.24925        35.98173        -0.04252
C         48.98727        35.22207        -0.29000
C         50.26805        37.38502         0.58366
C         48.93833        38.16066         0.56213
C         50.29134        40.37092         0.44126
C         48.92569        39.67727         0.50061
C         50.20817        41.86882         0.20696
C         49.02850        42.48987        -0.15442
C         50.25659        44.53113        -0.21065
C         48.95569        43.94588        -0.33646
C         51.28865        29.50830         1.13986
C         52.59142        31.72408         0.88879
C         51.58266        30.72733         0.36468
C         52.59843        32.92767         0.62613
C         51.57715        33.76207        -0.02522
C         52.67476        36.05553        -0.12863
C         51.57540        35.24001        -0.01618
C         52.43804        37.35081        -0.25624
C         51.44476        38.22515        -0.15601
C         52.35102        40.53549        -0.78836
C         51.17708        39.62552        -0.63560
C         52.45953        41.74375        -0.56851
C         51.64235        42.61928         0.35903
C         51.36816        44.01715        -0.05788
O         44.19071        34.21162        -1.88087
O         32.52010        36.73786         1.52364
O         41.36432        43.57370         2.18130
O         37.23601        30.99725         1.23065
O         37.82955        36.45194         1.11432
O         42.88967        46.31452        -1.37190
O         46.05840        38.99715         1.27605
O         38.45899        46.04443         2.99051
O         48.76648        38.97428         1.77534
O         51.18616        33.11948        -1.27676
O         44.26738        44.23404        -1.94210
O         39.72359        28.85385        -1.73722
O         49.66182        35.91560        -1.38819
O         36.69791        34.40726        -1.81076
O         36.76049        43.42683        -0.80573
O         34.94284        39.82959         1.86880
O         42.45989        47.43510         1.74540
O         47.58527        36.34148         1.45124
O         48.27595        33.07244        -1.44083
O         42.16189        37.74466         0.60986
O         34.33186        33.38508        -1.61602
O         43.34448        39.97481        -1.98512
O         42.49988        32.81191         1.04712
O         40.70790        35.62956        -2.34755
O         32.91188        32.71497         1.66531
H         32.93801        33.57460         2.13667
O         52.12215        42.55317         1.65723
H         52.13715        41.60571         1.93314
O         50.96639        40.14538         1.70070
H         50.30040        40.23313         2.41863
O         47.85991        28.81875        -0.28338
H         48.71630        28.38968        -0.49265
O         48.68587        30.05269         3.02625
H         49.52524        30.39219         3.39773
O         31.86752        38.27094        -1.77741
H         31.18948        38.82756        -2.21315
O         45.15852        41.90806        -2.49249
H         44.40248        41.36246        -2.80701
O         38.65900        31.16884        -2.08831
H         39.23255        30.56786        -2.61831
O         41.68664        33.17799        -2.48213
H         41.13899        33.76910        -3.04813
O         41.11093        45.89573         3.04744
H         41.63575        45.07850         3.20695
O         51.84952        30.45383        -0.96718
H         51.86852        31.31125        -1.45921
O         44.94638        32.23936         2.18243
H         44.04668        32.65015         2.21394
O         37.74331        33.47010         1.46882
H         37.48454        32.67500         1.99212
O         44.91227        26.98006        -1.00808
H         44.49218        26.48313        -1.73942
O         32.42575        31.75421        -1.80486
H         32.65268        30.94189        -2.30155
O         44.22752        27.32117         2.52817
H         44.74721        27.75687         3.23784
O         34.71655        36.13189        -1.95624
H         34.79626        35.23851        -2.37283
O         46.15686        29.74573         2.83996
H         45.70219        30.60577         3.01079
O         32.41289        39.98523         2.35058
H         33.25458        39.95126         2.85916
O         44.33458        42.18788         1.07387
H         43.54889        42.39132         1.62438
O         37.71085        27.23731         1.60997
H         36.85291        27.63462         1.87016
O         34.97140        41.63055        -1.30100
H         35.32291        42.45895        -1.70486
O         50.65214        37.20085         1.93047
H         50.35515        37.98724         2.44243
O         50.40238        39.55645        -1.83148
H         50.95455        39.17873        -2.54780
