         732
 CSIRO Nanostructure Databank - Neutral Graphene Oxide Data Set
C         23.00051        24.44490        -0.48705
C         21.92868        25.14695        -1.02899
C         23.18035        27.28934        -1.03608
C         21.93362        26.53271        -1.17859
C         23.18791        28.77365        -0.96544
C         22.12219        29.49934        -1.47426
C         23.08813        31.64100        -0.82572
C         22.10244        30.92216        -1.45067
C         23.05527        33.09597        -0.74557
C         21.84152        33.80564        -0.85537
C         23.00071        35.92299        -0.58250
C         21.81946        35.19528        -0.76233
C         22.99250        37.42755        -0.37266
C         21.75645        38.12881        -0.87248
C         23.02354        40.03647        -1.91519
C         21.77118        39.30892        -1.49863
C         22.97702        41.53828        -1.64396
C         21.76349        42.24096        -1.54059
C         22.93618        44.37728        -1.49503
C         21.74379        43.63260        -1.51337
C         22.92442        45.84673        -1.58658
C         21.75902        46.54549        -1.95787
C         22.93081        48.65895        -1.79047
C         21.76979        47.93799        -2.05106
C         25.37283        23.01166         0.76289
C         25.29764        24.48687         0.77354
C         24.13559        25.17622         0.08605
C         25.49278        27.35119         0.12881
C         24.35134        26.56912        -0.40614
C         25.47842        28.79044         0.02550
C         24.31709        29.45478        -0.39996
C         25.50424        31.64302        -0.09091
C         24.18069        30.92388        -0.07274
C         25.56067        33.05961        -0.59937
C         24.25286        33.81071        -0.54318
C         25.48075        35.95620        -0.36030
C         24.23403        35.22477        -0.48563
C         25.48751        37.38121        -0.62838
C         24.26698        38.07595        -0.86330
C         25.49532        40.11158        -1.45765
C         24.28555        39.40475        -1.34187
C         25.46235        41.54074        -1.98549
C         24.18072        42.26272        -1.61631
C         25.40146        44.38515        -1.14507
C         24.16878        43.67139        -1.46171
C         25.27743        45.82953        -0.81047
C         24.10856        46.57630        -1.33943
C         25.36207        48.75235        -1.23200
C         24.12906        48.00053        -1.42854
C         25.47214        50.14129        -1.34489
C         27.77602        23.11117         0.19735
C         26.52117        22.37443         0.47806
C         27.84138        24.53227         0.53410
C         26.60283        25.23573         1.03763
C         27.84134        27.39820         0.80705
C         26.60504        26.68558         0.59671
C         27.80833        28.84467         0.83430
C         26.65087        29.52669         0.47559
C         27.86987        31.73967         0.56455
C         26.64966        30.99233         0.33303
C         27.91228        33.13422         0.33918
C         26.73013        33.83390        -0.06207
C         27.92602        35.98771         0.11165
C         26.67628        35.24256        -0.09991
C         27.94269        37.43126        -0.34037
C         26.70584        38.07579        -0.79662
C         27.97359        40.15415        -1.23081
C         26.73758        39.45307        -1.18289
C         28.01107        41.60882        -1.37731
C         26.73715        42.34669        -1.66669
C         27.83875        44.36251        -0.58870
C         26.61872        43.74220        -1.16367
C         27.79673        45.84200        -0.24486
C         26.51901        46.60083        -0.46494
C         27.90269        48.75845        -0.84148
C         26.60804        48.00338        -0.98832
C         27.90973        50.24552        -0.86424
C         26.67213        50.85740        -1.16242
C         30.35001        20.28408         0.67272
C         29.17676        20.90518         0.39911
C         30.34988        23.12831         0.39710
C         29.12454        22.35061         0.14981
C         30.31553        24.52847         0.47621
C         29.04536        25.23121         0.57960
C         30.31552        27.34889         1.08414
C         29.03253        26.65964         0.84323
C         30.30638        28.80907         1.42595
C         28.94303        29.56725         1.54286
C         30.34858        31.81868         1.22087
C         29.02362        31.07230         1.21073
C         30.39964        33.18997         0.66480
C         29.17370        33.86890         0.43089
C         30.43352        35.96320         0.09438
C         29.20158        35.25158         0.16531
C         30.47378        37.34218        -0.28506
C         29.24657        37.98472        -0.76857
C         30.50695        40.19005        -0.87190
C         29.26140        39.45569        -1.14647
C         30.46045        41.62103        -0.78532
C         29.22351        42.31650        -0.89677
C         30.36423        44.42669        -0.45473
C         29.17317        43.70211        -0.70860
C         30.35150        45.93600        -0.49230
C         29.04437        46.58585        -0.16277
C         30.24963        48.80935         0.16768
C         28.99975        48.05338        -0.11099
C         30.38139        50.18917        -0.39332
C         29.12271        50.94557        -0.63344
C         30.44268        53.03743        -0.56798
C         29.25713        52.37187        -0.70171
C         32.90729        18.87477         0.92811
C         32.85411        20.30317         0.68565
C         31.60975        20.99537         0.64875
C         32.81649        23.13141         0.45403
C         31.58724        22.41010         0.50958
C         32.80037        24.55772         0.44185
C         31.56167        25.26088         0.54942
C         32.79465        27.37951         0.65822
C         31.57453        26.66772         0.68421
C         32.76828        28.89064         0.55773
C         31.61551        29.56171         1.30252
C         32.88598        31.75282         0.86770
C         31.64017        31.05685         1.28546
C         32.88732        33.15187         0.72370
C         31.63316        33.87108         0.58731
C         32.89235        35.99858         0.32249
C         31.65951        35.26900         0.31617
C         32.87702        37.38458         0.05332
C         31.68166        38.05700        -0.33083
C         32.91120        40.24937        -0.42620
C         31.68849        39.49912        -0.56819
C         32.91176        41.66046        -0.47510
C         31.65670        42.35313        -0.53915
C         32.85306        44.49864        -0.15780
C         31.60626        43.76429        -0.38899
C         32.81170        45.83289         0.15058
C         31.52088        46.54660         0.25606
C         32.76692        48.78818         0.55594
C         31.50344        48.03516         0.45863
C         32.81738        50.15550         0.46738
C         31.69290        50.89234        -0.19234
C         32.56755        53.01457         0.85246
C         31.79562        52.40448        -0.35641
C         32.72912        54.50423         0.73113
C         35.23161        18.81187         0.16195
C         34.03027        18.15605         0.70029
C         35.31501        20.28115         0.27621
C         34.06942        21.00427         0.45572
C         35.26134        23.15989         0.15879
C         34.04950        22.42631         0.37571
C         35.26114        24.54899         0.21610
C         34.03294        25.27279         0.40999
C         35.28562        27.41214         0.74672
C         34.00953        26.69152         0.52159
C         35.30112        28.88992         0.77011
C         34.09739        29.58647         0.79501
C         35.34689        31.72198         0.78272
C         34.10242        31.01987         0.82287
C         35.35229        33.14764         0.73971
C         34.12447        33.85884         0.65901
C         35.36292        35.97788         0.59099
C         34.13549        35.29247         0.54729
C         35.36572        37.44564         0.59379
C         34.08710        38.17935         0.27074
C         35.36419        40.25889        -0.29470
C         34.15321        39.57913        -0.20386
C         35.39740        41.69178        -0.40780
C         34.14942        42.38373        -0.39003
C         35.35637        44.48264        -0.08076
C         34.14030        43.79954        -0.23907
C         35.33384        45.87857         0.50445
C         34.06309        46.66515         0.11723
C         35.25565        48.73634         1.11118
C         33.97704        47.99674         0.85703
C         35.23702        50.21306         1.06838
C         34.02458        50.86612         0.84702
C         35.22369        53.09283         1.06282
C         33.91396        52.31853         1.06129
C         35.19968        54.51620         0.70114
C         33.92168        55.16099         0.64353
C         37.84959        15.99496         0.44448
C         36.64298        16.63127         0.34333
C         37.79448        18.83047        -0.04935
C         36.54788        18.04759        -0.02945
C         37.80210        20.22844        -0.01772
C         36.52566        20.93698         0.08767
C         37.82048        23.14459        -0.01725
C         36.50931        22.40239        -0.09061
C         37.79362        24.57692         0.20877
C         36.52369        25.31145        -0.11220
C         37.84123        27.44643         0.45055
C         36.56938        26.68251         0.52844
C         37.80994        28.86206         0.63195
C         36.56609        29.57417         0.75083
C         37.82005        31.71268         0.71963
C         36.57698        30.99722         0.76633
C         37.80888        33.13872         0.70636
C         36.60546        33.85089         0.70787
C         37.82707        36.03158         0.72019
C         36.61303        35.29799         0.65456
C         37.81525        37.46157         0.56504
C         36.63408        38.14443         0.37919
C         37.93769        40.20970        -0.43441
C         36.63309        39.49585        -0.21086
C         37.89437        41.68879        -0.85090
C         36.62950        42.41979        -0.40489
C         37.85457        44.59729        -0.07524
C         36.61291        43.81876        -0.21430
C         37.86940        45.94414         0.26386
C         36.58381        46.72640         0.16224
C         37.83278        48.76317         1.14707
C         36.56518        48.00034         0.99476
C         37.76077        50.24894         1.18906
C         36.49670        50.93435         1.11383
C         37.69348        53.06333         0.81751
C         36.48337        52.33880         0.96718
C         37.68179        54.48144         0.58945
C         36.43162        55.19092         0.48234
C         37.67366        57.26687         0.13388
C         36.47465        56.58172         0.18386
C         40.35716        14.53382         0.14783
C         40.32555        15.94958         0.11933
C         39.07712        16.64446         0.12532
C         40.37459        18.85479        -0.14655
C         39.04259        18.07265        -0.19667
C         40.30595        20.29594         0.15504
C         39.06149        20.94468         0.10139
C         40.31329        23.14970         0.38454
C         39.01195        22.39068         0.52807
C         40.31206        24.54233         0.32642
C         39.07418        25.30630        -0.08264
C         40.28967        27.44894         0.42639
C         39.04977        26.75862         0.33090
C         40.29268        28.86026         0.57126
C         39.04867        29.57751         0.62716
C         40.30786        31.71647         0.78229
C         39.05082        30.99632         0.68095
C         40.30363        33.09600         0.88923
C         39.09741        33.87444         0.45398
C         40.27633        36.02787         0.98581
C         39.09362        35.34204         0.82463
C         40.33528        37.50331         1.01673
C         39.05768        38.25417         0.70119
C         40.36931        40.30251         0.24226
C         39.15798        39.61683         0.16251
C         40.42235        41.71508        -0.05924
C         39.21295        42.42004        -0.53167
C         40.37747        44.59717         0.17987
C         39.15215        43.91960        -0.26211
C         40.32514        46.01264         0.31203
C         39.09982        46.70177         0.37959
C         40.26989        48.85247         0.82024
C         39.10535        48.12473         0.69696
C         40.26171        50.22186         1.46891
C         38.96005        50.96560         1.17605
C         40.15062        53.10565         0.87937
C         38.92812        52.37366         0.97008
C         40.15562        54.46721         0.54413
C         38.91688        55.17883         0.44529
C         40.14207        57.36541         0.44013
C         38.91090        56.60700         0.30707
C         40.13226        58.70520         0.78707
C         42.76784        14.53910         0.29164
C         41.56113        13.84415         0.22224
C         42.79561        15.94998         0.26186
C         41.57088        16.67687         0.14811
C         42.79513        18.81957         0.35694
C         41.59762        18.10162         0.16227
C         42.78307        20.26133         0.50478
C         41.53153        20.97800         0.47213
C         42.75249        23.13233         0.70222
C         41.53984        22.42613         0.55282
C         42.75761        24.55412         0.60058
C         41.53050        25.27035         0.41822
C         42.74943        27.41244         0.48005
C         41.52641        26.70588         0.41795
C         42.76423        28.84149         0.56526
C         41.53859        29.56628         0.64794
C         42.79443        31.67694         0.86314
C         41.55948        30.98252         0.80134
C         42.81912        33.10399         1.03365
C         41.54511        33.80473         1.22072
C         42.83339        36.02555         1.06871
C         41.55646        35.32607         1.24536
C         42.83319        37.46155         0.85070
C         41.61139        38.19191         0.75892
C         42.84706        40.30108         0.50858
C         41.60927        39.59233         0.54525
C         42.85658        41.73860         0.39424
C         41.60947        42.44218         0.15697
C         42.83232        44.60502         0.37297
C         41.59615        43.88607         0.19602
C         42.84115        46.01728         0.40822
C         41.58579        46.75366         0.23493
C         42.83275        48.93668         0.85682
C         41.56793        48.27231         0.46794
C         42.83437        50.30145         1.24419
C         41.54581        51.03339         1.26830
C         42.46280        53.35606         1.45960
C         41.39606        52.41671         1.18979
C         42.61993        54.58077         0.89783
C         41.45125        55.14557         0.10981
C         42.70768        57.43939         0.66889
C         41.43748        56.67915         0.25225
C         42.52715        58.77165         1.25021
C         41.31142        59.38980         1.20845
C         45.28363        15.99893         0.33841
C         44.04003        16.67998         0.33098
C         45.26691        18.82141         0.43862
C         44.03534        18.10225         0.39732
C         45.26213        20.25763         0.58949
C         44.00840        20.94160         0.70281
C         45.29158        23.13691         1.12591
C         43.96123        22.36265         1.22232
C         45.26547        24.59013         0.78240
C         43.97888        25.28828         0.59022
C         45.23244        27.40652         0.40426
C         43.98698        26.68831         0.48586
C         45.24209        28.82451         0.45994
C         44.00628        29.53814         0.58881
C         45.26841        31.64025         0.80375
C         44.02813        30.95374         0.73861
C         45.26769        33.06758         1.16059
C         44.00611        33.83043         1.11254
C         45.29580        35.96920         1.03160
C         44.03431        35.27652         1.12663
C         45.30555        37.46213         1.24730
C         44.05136        38.17449         0.81873
C         45.33093        40.29645         0.67171
C         44.07378        39.58715         0.67676
C         45.33974        41.74218         0.58748
C         44.06780        42.44636         0.49641
C         45.26739        44.61578         0.52780
C         44.06746        43.88945         0.46930
C         45.27781        46.02944         0.49548
C         44.04530        46.75254         0.50841
C         45.30592        48.84134         0.72725
C         44.04706        48.18538         0.69256
C         45.34644        50.24381         0.96278
C         44.14155        50.92043         1.34210
C         45.40062        53.04875         1.23417
C         44.33230        52.28312         1.67960
C         45.28801        54.49890         0.92934
C         43.96171        55.23527         0.78592
C         45.19683        57.35292         1.00062
C         43.99410        56.70981         0.88068
C         46.47154        16.69162         0.35627
C         47.73396        18.83364         0.28664
C         46.49409        18.11132         0.38350
C         47.72065        20.25804         0.33338
C         46.50067        20.94544         0.58979
C         47.72968        23.12717         0.29578
C         46.62885        22.37917         1.04605
C         47.65051        24.51974         0.04852
C         46.48202        25.26677         0.28723
C         47.63692        27.43277        -0.06476
C         46.45068        26.69323         0.18400
C         47.67868        28.83157         0.09929
C         46.47449        29.54279         0.38685
C         47.73230        31.68400         0.42278
C         46.49189        30.96421         0.56505
C         47.76403        33.09998         0.56702
C         46.57292        33.82652         1.03895
C         47.73818        35.99667         0.69060
C         46.50693        35.29400         0.88985
C         47.74329        37.43501         0.69167
C         46.56526        38.14766         0.80008
C         47.79288        40.27716         0.49662
C         46.56162        39.58924         0.69955
C         47.87364        41.75471         0.68705
C         46.53961        42.44490         0.59091
C         47.71792        44.60230         0.07722
C         46.57552        43.92917         0.79926
C         47.73662        46.00884         0.04328
C         46.52570        46.72890         0.39542
C         47.76439        48.84272         0.32844
C         46.52969        48.13191         0.47284
C         47.80488        50.24336         0.55426
C         46.58810        50.94606         0.88069
C         47.81213        53.12506         0.82806
C         46.61351        52.37020         0.94371
C         47.80582        54.54282         0.91231
C         46.54317        55.28431         1.01842
C         46.45305        56.65701         1.04178
C         50.12475        18.85744        -0.14835
C         48.97085        18.15948         0.12768
C         50.11296        20.27212        -0.27075
C         48.93778        20.98278         0.06587
C         50.11150        23.11731        -0.42517
C         48.92005        22.42388        -0.01771
C         50.11530        24.52393        -0.59798
C         48.81755        25.20374        -0.54437
C         50.11866        27.42018        -0.59099
C         48.82038        26.73384        -0.56917
C         50.12665        28.84371        -0.37222
C         48.92609        29.53780        -0.06430
C         50.15124        31.66027        -0.10158
C         48.93705        30.96112         0.08897
C         50.12037        33.12688        -0.15653
C         48.92192        33.85499         0.29735
C         50.17910        36.01446         0.29841
C         48.93723        35.27650         0.43343
C         50.24810        37.39455         0.35746
C         49.05291        38.17078         0.80710
C         50.18626        40.25588        -0.08507
C         49.00971        39.59291         0.33142
C         50.09991        41.65761        -0.48201
C         48.97469        42.38726        -0.14440
C         50.01892        44.56563        -1.03469
C         48.82777        43.81881        -0.48307
C         50.04399        46.09061        -1.08462
C         48.90272        46.74382        -0.32402
C         50.15555        48.87990        -0.25581
C         48.94621        48.14914        -0.09484
C         50.20331        50.25469         0.05614
C         49.03032        50.94087         0.44915
C         50.27494        53.14719         0.31681
C         49.11926        52.37712         0.89908
C         50.20752        54.53737         0.36318
C         49.03363        55.22084         0.72735
C         52.30201        20.25401        -1.45520
C         51.26404        20.96761        -0.81863
C         52.38716        23.09795        -1.40044
C         51.27926        22.39144        -0.83392
C         52.53139        24.54233        -1.20852
C         51.29807        25.25635        -0.88786
C         52.58821        27.41419        -1.08113
C         51.28271        26.68895        -0.83913
C         52.59302        28.84640        -0.58788
C         51.37608        29.55222        -0.41691
C         52.64677        31.66867        -0.23235
C         51.38588        30.97504        -0.26043
C         52.70002        33.08826        -0.09132
C         51.44252        33.84922        -0.16297
C         52.73816        35.98752         0.29647
C         51.43546        35.24922         0.32108
C         52.70907        37.43738         0.08131
C         51.47921        38.12727         0.14885
C         52.63981        40.17864        -0.52468
C         51.43395        39.53317        -0.14327
C         52.61392        41.52097        -1.22960
C         51.28901        42.29994        -1.12845
C         52.59864        44.52786        -0.95964
C         51.32017        43.81778        -1.20325
C         52.57643        45.94940        -0.74177
C         51.38099        46.68928        -0.73358
C         52.62432        48.78206        -0.08484
C         51.40514        48.20355        -0.79367
C         52.66865        50.28576        -0.24345
C         51.46300        50.99598        -0.06244
C         52.68377        53.09178        -0.32707
C         51.47276        52.42009        -0.03595
C         53.27913        20.93175        -2.17244
C         55.24062        23.46463        -2.23459
C         53.28996        22.33208        -2.15766
C         55.07029        24.62526        -1.44352
C         53.76993        25.21269        -1.17697
C         55.06574        27.34866        -0.57114
C         53.75285        26.59418        -0.52606
C         55.06919        28.75414        -0.44896
C         53.82678        29.50766        -0.44626
C         55.11643        31.61299        -0.18486
C         53.86001        30.92601        -0.26981
C         55.15099        33.04177        -0.07850
C         53.91813        33.78221        -0.00260
C         55.15557        35.93046        -0.11399
C         53.96680        35.22811         0.00971
C         55.16404        37.35554        -0.30520
C         53.91527        38.09809        -0.25057
C         55.10128        40.16639        -1.04857
C         53.85756        39.48458        -0.54228
C         55.08031        41.66631        -0.82239
C         53.85529        42.35650        -0.93693
C         55.06841        44.49018        -0.73789
C         53.82116        43.78511        -0.87068
C         55.07720        45.92220        -0.66929
C         53.85334        46.64570        -0.59862
C         55.09842        48.75586        -0.52888
C         53.89162        48.06298        -0.47396
C         55.15368        50.24846        -0.76823
C         53.86563        50.97582        -0.47850
C         53.84765        52.38071        -0.56971
C         57.58392        23.30031        -1.72053
C         56.45987        22.78913        -2.35193
C         57.52403        24.55205        -1.06932
C         56.28349        25.23999        -0.97104
C         57.51820        27.30649        -0.31807
C         56.28181        26.62957        -0.56624
C         57.50594        28.70613        -0.12921
C         56.30557        29.44216        -0.26329
C         57.57319        31.58403        -0.11253
C         56.33009        30.88332        -0.17459
C         57.59287        33.01036        -0.13418
C         56.37906        33.72768        -0.07839
C         57.67560        35.87282        -0.31490
C         56.43449        35.20603         0.20543
C         57.64154        37.30488        -0.55193
C         56.38402        38.02003        -0.55158
C         57.56026        40.16362        -0.62996
C         56.38548        39.46689        -0.65200
C         57.55813        41.62639        -0.27000
C         56.29405        42.36039        -0.65942
C         57.55921        44.48930        -0.61991
C         56.30318        43.77939        -0.66022
C         57.56464        45.90439        -0.60458
C         56.32279        46.61893        -0.59788
C         57.56146        48.75695        -0.39126
C         56.33486        48.04368        -0.54217
C         57.50884        50.15328        -0.02296
C         56.35515        50.85942        -0.09272
C         59.95883        24.44354        -0.52702
C         58.75658        25.17843        -0.60478
C         60.00891        27.19782        -0.00445
C         58.76617        26.56376        -0.28839
C         60.05337        28.65325         0.29484
C         58.74534        29.42557         0.23115
C         60.03363        31.56692         0.04419
C         58.80300        30.88213         0.02324
C         60.05135        33.00103        -0.07652
C         58.84479        33.71133        -0.18357
C         60.12511        35.80442        -0.86130
C         58.84143        35.15013        -0.39507
C         60.10809        37.30810        -0.66266
C         58.84742        37.99236        -0.70925
C         60.09150        40.19641        -0.60801
C         58.83829        39.46914        -1.01173
C         60.05615        41.65105        -0.65844
C         58.83315        42.35250        -0.62030
C         60.04312        44.48876        -0.75177
C         58.81342        43.77161        -0.66444
C         60.04481        45.93764        -0.70311
C         58.80507        46.63108        -0.60444
C         60.03930        48.75464        -0.49969
C         58.80643        48.05725        -0.48875
C         61.15621        25.06657        -0.20088
C         61.18686        26.44515         0.02981
C         61.27627        29.43706         0.06169
C         61.25884        30.79477         0.02360
C         61.28912        33.76836        -0.01337
C         61.32928        35.08701        -0.29783
C         61.26349        38.04984        -0.50837
C         61.23976        39.47442        -0.39967
C         61.26196        42.38296        -0.79847
C         61.25313        43.76183        -0.83696
C         61.24793        46.67417        -0.71804
C         61.23945        48.06637        -0.62170
O         27.70031        42.16893        -2.77016
O         41.61927        47.71134        -0.88392
O         39.78313        18.44839        -1.41335
O         29.34675        38.37451        -2.16846
O         39.44354        43.37270        -1.61262
O         46.08950        33.36469         2.35002
O         44.66117        54.70940        -0.40997
O         36.01204        26.76192         1.87432
O         28.40581        22.74136        -1.07207
O         31.91071        30.28869         2.51856
O         27.88524        37.09051         1.08819
O         51.14999        42.99480        -2.41439
O         54.18450        22.98565        -3.02061
O         24.21265        25.04685         1.57386
O         48.52677        25.94707        -1.77729
O         29.50827        31.79003         2.41192
O         27.63992        44.80086         0.80406
O         52.15710        35.48411         1.57656
O         27.57622        48.10030        -2.11005
O         37.25596        47.99012         2.27194
O         50.70463        33.67969        -1.41183
O         31.36146        50.26102        -1.49306
O         34.45906        48.13075         2.22046
O         45.38028        24.11822         2.22394
O         31.29648        47.09594         1.57843
O         39.56368        38.14361         2.08925
O         25.54745        46.31353         0.56961
O         35.63635        18.30790        -1.16178
O         42.27596        57.33392        -0.74692
O         24.27821        26.69749        -1.85924
O         43.37109        52.94451         2.43912
O         30.42564        27.82501         2.49631
O         41.48177        34.54642         2.50143
O         37.25121        22.77031        -1.33504
O         34.56114        38.06234         1.67173
O         34.49769        52.76466         2.32380
O         29.24513        48.69538         1.21867
O         59.32862        29.00494         1.52060
O         48.99411        44.07727        -1.95530
O         37.36742        39.38770        -1.51315
O         52.78496        27.48693        -2.52291
H         52.00088        27.92432        -2.91592
O         45.31837        37.62126         2.72583
H         44.56597        37.09933         3.08063
O         39.17989        25.35302        -1.55771
H         38.30321        25.67236        -1.89043
O         28.54647        29.48924         2.92753
H         29.16140        30.06573         3.43540
O         38.74759        22.36164         1.97995
H         39.55762        22.03112         2.42431
O         25.39304        41.42755        -3.44406
H         26.33117        41.44385        -3.76098
O         40.25691        49.95807         2.91335
H         40.14788        50.81440         3.37816
O         49.79333        46.45988        -2.49380
H         49.23771        45.73543        -2.87090
O         56.54090        35.31347         1.67802
H         55.72251        34.93022         2.06112
O         35.33287        45.63306         1.92405
H         35.16069        46.48724         2.39790
O         47.12512        22.26206         2.41605
H         46.84350        23.08609         2.87925
O         26.73042        25.26484         2.49270
H         25.85728        25.54626         2.84653
O         49.42339        52.29493         2.35766
H         49.51032        53.21795         2.68035
O         52.72514        41.12752        -2.64356
H         52.33810        41.87455        -3.16478
O         23.10715        39.88084        -3.35879
H         23.90501        40.38514        -3.66097
O         39.22174        33.92226        -1.03214
H         39.09373        33.00725        -1.36420
O         25.83799        32.91318        -2.05805
H         26.69254        32.43882        -2.14613
O         52.43215        48.49990         1.33279
H         53.17471        48.90214         1.82957
O         49.25275        38.30883         2.27517
H         49.31578        37.40286         2.64841
O         36.57092        47.18861        -1.21180
H         36.73086        46.42373        -1.80326
O         37.75102        41.70978        -2.29240
H         38.53246        41.27113        -2.68760
O         36.48816        25.52045        -1.58034
H         36.52838        24.60969        -1.96672
O         57.53422        41.61533         1.21314
H         57.56292        42.54961         1.51182
O         32.43010        29.16034        -0.85313
H         33.10528        28.72516        -1.41643
O         55.12807        39.97517        -2.50447
H         54.26817        40.33676        -2.85008
O         43.69468        22.20194         2.65355
H         44.03864        23.01930         3.08591
O         46.82863        44.14757         2.24146
H         47.47812        43.45075         2.52044
O         55.37607        50.41304        -2.21221
H         56.18736        49.91190        -2.44158
O         41.60589        54.83823        -1.29337
H         42.28280        55.46213        -1.64278
O         58.83158        39.56401        -2.49415
H         57.98338        39.18019        -2.80818
O         53.46898        26.38824         0.89063
H         54.23574        25.92670         1.29019
O         23.00644        37.60176         1.08602
H         23.07572        38.56171         1.27238
O         30.63978        46.29414        -1.90307
H         29.86842        46.03720        -2.45277
O         34.11021        47.08183        -1.27858
H         33.95493        46.30008        -1.84901
O         51.51826        48.55566        -2.19740
H         50.86463        48.00018        -2.68766
O         31.75685        52.72272         2.01220
H         32.32278        52.86735         2.80242
O         23.73923        30.95872         1.34121
H         24.44161        30.53170         1.87835
O         60.18967        35.61096        -2.31879
H         60.17412        34.64443        -2.48387
O         48.33787        41.92579         2.11517
H         48.19645        41.06920         2.57679
O         32.61930        52.66616        -1.51585
H         32.30872        52.05614        -2.22242
H         22.91544        23.36386        -0.31459
H         21.01685        24.59133        -1.29348
H         21.00467        27.04987        -1.45333
H         21.28613        28.97829        -1.96001
H         21.28195        31.43890        -1.96832
H         20.89730        33.25963        -0.98715
H         20.85281        35.71164        -0.83038
H         20.78451        37.67889        -0.61847
H         20.81277        39.74380        -1.82075
H         20.80704        41.70166        -1.54077
H         20.77239        44.14476        -1.49551
H         20.83024        46.00264        -2.17757
H         22.90818        49.75338        -1.87631
H         20.85208        48.47042        -2.33676
H         24.45374        22.44358         0.96536
H         24.57255        50.73430        -1.56324
H         26.53267        21.27738         0.41972
H         26.62409        51.95239        -1.24643
H         30.34601        19.19778         0.83275
H         28.25468        20.31373         0.31957
H         30.43545        54.13109        -0.69006
H         28.35201        52.96906        -0.88986
H         32.01062        18.35817         1.29594
H         31.80287        55.09778         0.72813
H         34.02427        17.06688         0.84331
H         33.89273        56.25394         0.52446
H         37.86089        14.93610         0.73720
H         35.71808        16.06078         0.50148
H         37.65609        58.34937        -0.05146
H         35.54129        57.13981         0.03496
H         39.42143        13.96317         0.08655
H         39.17602        59.23638         0.89026
H         43.69849        13.96380         0.37438
H         41.56269        12.74562         0.23410
H         43.38194        59.26260         1.73657
H         41.20421        60.40851         1.60726
H         45.31701        14.90280         0.30393
H         45.22735        58.45204         1.02461
H         47.40969        16.12291         0.34136
H         47.36259        57.27345         1.06536
H         51.05685        18.29741        -0.29818
H         49.01973        17.06461         0.18064
H         51.07898        55.14254         0.07618
H         49.06272        56.31817         0.75727
H         52.29758        19.15698        -1.47448
H         52.71293        54.18891        -0.36249
H         54.02180        20.38678        -2.76883
H         54.76938        52.92171        -0.82382
H         58.53734        22.76765        -1.82278
H         56.51861        21.87864        -2.96162
H         58.41424        50.63194         0.37685
H         56.33055        51.91238         0.22261
H         59.96234        23.36162        -0.71209
H         60.05298        49.85055        -0.43532
H         62.08166        24.47882        -0.13223
H         62.14256        26.92732         0.27546
H         62.22543        28.90840        -0.10734
H         62.20914        31.32549        -0.12803
H         62.20818        33.26267         0.31620
H         62.29130        35.61589        -0.23806
H         62.24134        37.55413        -0.43926
H         62.18373        39.98282        -0.15618
H         62.21919        41.85110        -0.87933
H         62.21077        44.28901        -0.93367
H         62.21479        46.16220        -0.80244
H         62.18882        48.61913        -0.64024
