         598
 CSIRO Nanostructure Databank - Neutral Graphene Oxide Data Set
C         23.10249        69.65519         2.57859
C         23.12347        71.08039         2.35519
C         21.97200        71.82123         2.73270
C         23.08182        73.94102         2.34314
C         21.94081        73.21374         2.68108
C         25.69542        65.48883         1.61593
C         25.61905        66.89328         1.67227
C         24.41017        67.45866         2.21528
C         25.66302        69.87814         1.32755
C         23.96544        68.76375         1.92798
C         25.56106        71.20069         1.73561
C         24.29948        71.83063         1.97744
C         25.48396        74.02456         1.81457
C         24.29294        73.27151         2.04654
C         27.97403        61.34932         0.11722
C         27.97859        62.73386         0.43366
C         26.83422        63.40947         0.91757
C         28.07900        65.53743         1.01790
C         26.85470        64.79665         1.17837
C         28.06267        66.97916         1.12777
C         26.81646        67.65963         1.31838
C         28.07648        69.80215         1.25157
C         26.85915        69.08621         1.33821
C         28.10615        71.24196         1.55720
C         26.81599        71.96152         1.89940
C         27.95511        74.12004         1.49850
C         26.75701        73.42639         1.72245
C         30.02548        56.93661        -0.32176
C         30.17237        58.36888        -0.50751
C         29.07726        59.24317        -0.43167
C         30.27958        61.49017        -0.67073
C         29.10775        60.68574        -0.39165
C         30.36029        62.82320        -0.21940
C         29.20724        63.46934         0.31260
C         30.54520        65.53168         0.64904
C         29.24782        64.84266         0.66345
C         30.56268        67.04438         0.78988
C         29.25980        67.72232         0.90925
C         30.44589        69.90480         0.53091
C         29.26633        69.13723         0.91281
C         30.39208        71.36758         0.59035
C         29.25279        72.03250         1.10860
C         30.37021        74.19958         0.93302
C         29.19799        73.45928         1.20605
C         32.70781        52.81620         0.21424
C         32.64617        54.16462        -0.11487
C         31.34487        54.75336        -0.07370
C         33.01036        57.25499        -0.33992
C         31.10059        56.13420         0.01891
C         32.76566        58.47254        -0.97921
C         31.40586        58.86831        -1.08300
C         32.69842        61.45748        -1.32334
C         31.41747        60.94908        -1.37012
C         32.74268        62.90872        -1.07816
C         31.60135        63.56139        -0.38265
C         32.95111        65.64595        -0.10199
C         31.68821        64.87330         0.00423
C         32.86913        67.12935        -0.13108
C         31.72181        67.79449         0.23262
C         32.70569        69.99370        -0.50002
C         31.58575        69.23776         0.09451
C         32.68842        71.52026        -0.35866
C         31.52344        72.14623         0.26209
C         32.76757        74.27358         0.27676
C         31.55784        73.55765         0.50109
C         35.17143        48.45306         0.34299
C         34.88303        49.78560         0.67974
C         33.77554        50.62650         0.41251
C         35.07837        52.63906        -0.38016
C         33.89891        52.03408         0.17238
C         35.10742        53.98847        -1.13201
C         33.83695        54.82327        -0.78718
C         35.27108        56.96227        -1.35069
C         33.98885        56.31227        -0.91409
C         35.25026        58.44977        -1.61217
C         33.91075        59.17527        -1.64662
C         35.24709        61.38500        -1.57418
C         33.92368        60.70600        -1.72785
C         35.27438        62.89413        -1.82444
C         34.00547        63.63614        -1.34967
C         35.33504        65.77401        -1.11319
C         34.14552        64.98612        -0.71616
C         35.29844        67.17264        -0.96252
C         33.94557        67.84733        -0.92336
C         35.18578        70.03166        -0.67273
C         34.01828        69.31964        -0.61194
C         35.16811        71.51290        -0.76014
C         33.95205        72.24714        -0.40670
C         35.22323        74.34519        -0.16032
C         33.97899        73.62781        -0.10370
C         37.78383        44.32508         0.07144
C         37.76170        45.72966         0.16735
C         36.54498        46.45702         0.25278
C         37.75621        48.58749         0.21648
C         36.48844        47.86250         0.32393
C         37.81827        49.97555        -0.08755
C         36.64375        50.75768         0.14829
C         37.97183        52.78993        -1.14616
C         36.16750        51.79688        -0.64215
C         37.78472        54.17953        -0.95027
C         36.49083        54.82785        -0.98205
C         37.73513        57.01905        -1.05378
C         36.52276        56.23210        -1.04326
C         37.69973        58.48307        -1.22347
C         36.51197        59.21362        -1.41275
C         37.69881        61.43007        -1.35210
C         36.45565        60.68321        -1.45059
C         37.74150        62.84659        -1.30020
C         36.53038        63.60124        -1.35849
C         37.79551        65.75010        -1.32389
C         36.52339        65.01438        -1.28543
C         37.76992        67.28189        -1.13490
C         36.47735        67.94963        -0.93897
C         37.68203        70.06039        -0.43312
C         36.47440        69.35326        -0.70369
C         37.71528        71.49715        -0.36762
C         36.48584        72.25867        -0.68933
C         37.69154        74.37463        -0.37352
C         36.44822        73.70668        -0.36847
C         40.22881        39.98041        -0.40123
C         40.18762        41.42876        -0.50077
C         38.98634        42.21424        -0.24042
C         40.24810        44.35070        -0.06070
C         39.00324        43.60941        -0.08543
C         40.24514        45.73770         0.14780
C         39.00504        46.44962         0.19185
C         40.23825        48.58253         0.19109
C         38.98982        47.86487         0.19991
C         40.25754        49.98071        -0.07686
C         39.04803        50.65054        -0.39596
C         40.27961        52.81821        -0.46181
C         39.08813        52.06442        -0.68879
C         40.22461        54.22622        -0.56294
C         38.99805        54.92327        -0.74523
C         40.22917        57.06792        -0.93522
C         38.96547        56.35636        -0.85671
C         40.17636        58.50959        -1.09694
C         38.97059        59.18946        -1.18716
C         40.25092        61.44809        -1.15260
C         38.96880        60.67215        -1.38214
C         40.24950        62.90210        -0.92306
C         38.98977        63.58655        -1.07206
C         40.20058        65.69593        -0.58291
C         38.99657        64.97383        -1.02523
C         40.15994        67.17393        -0.38583
C         38.95155        67.97727        -0.61427
C         40.11159        69.97001         0.33334
C         38.90575        69.31239        -0.24508
C         40.11969        71.55077         0.33747
C         38.88802        72.21453        -0.14454
C         40.14428        74.31101        -0.55882
C         38.91411        73.65403        -0.36976
C         42.79448        35.96217        -1.52781
C         42.70299        37.20672        -0.87236
C         41.50663        37.92640        -0.80269
C         42.67645        40.02890        -0.10144
C         41.45193        39.31366        -0.45476
C         42.71675        41.39854         0.02798
C         41.55022        42.17294        -0.40546
C         42.79822        44.35840         0.26130
C         41.53062        43.65798        -0.21934
C         42.65655        45.75422         0.67784
C         41.47563        46.45288         0.44336
C         42.66231        48.63595         0.62734
C         41.45519        47.90034         0.47426
C         42.70223        50.01991         0.31948
C         41.49417        50.70770        -0.03808
C         42.75649        52.81452        -0.34503
C         41.50572        52.10837        -0.22196
C         42.73812        54.18669        -0.59573
C         41.49121        54.99151        -0.27874
C         42.71142        57.03270        -1.19624
C         41.43896        56.38264        -0.85466
C         42.73331        58.55176        -1.21824
C         41.45767        59.23662        -0.85808
C         42.75170        61.47762        -0.85776
C         41.48618        60.72367        -0.74585
C         42.74444        62.86485        -0.78770
C         41.47296        63.57436        -0.75171
C         42.69384        65.71670        -0.52973
C         41.50830        65.00729        -0.64831
C         42.70781        67.22733        -0.64715
C         41.42351        67.90801        -0.25157
C         42.62662        69.72504         0.73285
C         41.38470        69.18707         0.25669
C         42.59992        71.87222         0.71825
C         41.37032        72.34554         0.23842
C         42.63818        74.28519        -0.57993
C         41.38917        73.64402        -0.36562
C         45.37470        33.58843        -2.86076
C         44.12122        34.10201        -2.44292
C         45.23565        35.81655        -1.04112
C         44.01953        35.27135        -1.67553
C         45.22535        37.18457        -0.49836
C         43.90705        37.77906        -0.22412
C         45.15967        39.91188         0.45164
C         43.87206        39.22416         0.22816
C         45.08063        41.29749         1.00498
C         43.76059        42.06940         0.91542
C         45.11922        44.21833         1.13867
C         43.97389        43.56377         0.67859
C         45.08936        45.66361         1.47600
C         43.80479        46.42828         1.28653
C         45.15134        48.66113         1.31585
C         43.83084        47.94502         1.21489
C         45.15840        50.10943         0.86856
C         43.93709        50.74552         0.30488
C         45.27017        52.69062        -0.44464
C         43.98861        52.05996        -0.18012
C         45.26750        54.07171        -1.01961
C         43.96975        54.86210        -1.02109
C         45.22510        57.09725        -1.10372
C         43.98347        56.32839        -1.08224
C         45.18886        58.56967        -0.89321
C         44.02257        59.26508        -1.00545
C         45.30406        61.52128        -0.97882
C         44.00265        60.74731        -1.08703
C         45.23522        62.93207        -0.55108
C         43.98270        63.61148        -0.63413
C         45.16901        65.73514        -0.21613
C         43.95501        65.02195        -0.46672
C         45.15487        67.16019        -0.03402
C         43.94460        67.87742        -0.08589
C         45.11634        70.00863         0.60233
C         43.88226        69.20657         0.41126
C         45.08617        71.55285         0.47329
C         43.84777        72.34691         0.28583
C         45.13328        74.30459        -0.51298
C         43.87412        73.64266        -0.32938
C         46.56629        34.18642        -2.52341
C         47.75271        36.13460        -1.37263
C         46.61292        35.24233        -1.51636
C         47.68188        37.32625        -0.65265
C         46.39308        37.87208        -0.21432
C         47.62102        39.83899         0.88639
C         46.34693        39.23163         0.32180
C         47.62623        41.38081         0.77360
C         46.35384        42.04490         1.25979
C         47.58995        44.23064         1.47442
C         46.36733        43.53475         1.33178
C         47.67644        45.65070         1.43854
C         46.42046        46.42468         1.57022
C         47.65798        48.50734         1.13870
C         46.43074        47.88622         1.33311
C         47.73427        49.96659         0.82937
C         46.47491        50.76156         0.58109
C         47.75703        52.66761        -0.44526
C         46.45276        52.00038        -0.25424
C         47.79434        54.16865        -0.50017
C         46.55568        54.86086        -0.94637
C         47.63195        57.03341        -0.11846
C         46.52471        56.36600        -0.89042
C         47.60697        58.52553        -0.05455
C         46.50779        59.25092        -0.76619
C         47.69005        61.42324        -0.07437
C         46.57381        60.75872        -0.76401
C         47.64268        62.84847         0.10173
C         46.40587        63.59228        -0.14408
C         47.56615        65.72920         0.36370
C         46.38939        65.02171         0.01374
C         47.59569        67.14863         0.37287
C         46.37315        67.86931         0.24021
C         47.61254        69.97043         0.26951
C         46.38856        69.28483         0.34242
C         47.60334        71.39274        -0.13629
C         46.31828        72.16394        -0.13780
C         47.61008        74.25633        -0.49558
C         46.35713        73.64023        -0.33270
C         48.86433        38.09672        -0.47855
C         50.07672        40.03202         0.35722
C         48.89359        39.31473         0.22756
C         50.15520        41.27630         1.13503
C         48.85175        41.97661         1.45296
C         50.17364        44.17934         1.69377
C         48.84620        43.45963         1.70919
C         50.19659        45.64547         1.44832
C         48.92504        46.36401         1.39557
C         50.17711        48.52699         1.24649
C         48.89894        47.77108         1.22389
C         50.26176        49.87789         0.67698
C         48.97932        50.41548         0.08430
C         49.80362        52.76701         0.92274
C         49.00119        51.93840        -0.05300
C         50.06053        54.20663         0.58527
C         48.94497        54.90817         0.07875
C         50.06437        57.02085         0.52603
C         48.91410        56.31826         0.13804
C         49.96800        58.48481         0.92922
C         48.84546        59.25615         0.25723
C         50.01208        61.33404         0.87638
C         48.81514        60.64735         0.33216
C         50.02315        62.83504         0.85579
C         48.78007        63.53726         0.49987
C         50.05945        65.65771         0.52825
C         48.76271        64.98118         0.87898
C         50.07639        67.11878         0.61656
C         48.82183        67.87149         0.51129
C         50.10603        69.97682         0.08464
C         48.84627        69.26506         0.30946
C         50.08520        71.42352        -0.14414
C         48.88246        72.12351        -0.21709
C         50.07534        74.22894        -0.58177
C         48.85266        73.54960        -0.43280
C         51.39148        42.07784         1.12241
C         52.74639        44.09289         1.55410
C         51.41149        43.39950         1.40346
C         52.69983        45.57567         1.27605
C         51.42795        46.27552         1.31349
C         52.74617        48.40973         0.87799
C         51.50384        47.74366         1.30142
C         52.73139        49.77141         0.65058
C         51.48564        50.48528         0.50498
C         52.66503        52.65042         1.04129
C         51.73276        51.91069         0.07281
C         52.49689        54.16642         1.34251
C         51.26589        54.88471         0.87212
C         52.51470        57.04656         0.86488
C         51.28263        56.30571         0.74535
C         52.48627        58.46758         0.86439
C         51.29479        59.20446         0.84824
C         52.49280        61.38238         0.82003
C         51.31070        60.62855         0.83962
C         52.51230        62.81552         0.64934
C         51.30296        63.53655         0.67138
C         52.50925        65.62080         0.15185
C         51.27838        64.94961         0.44078
C         52.42891        67.01661        -0.40761
C         51.36079        67.84323         0.29686
C         52.64021        69.95407        -0.06629
C         51.29335        69.28551         0.00417
C         52.55211        71.41344        -0.43036
C         51.33023        72.11255        -0.36409
C         52.54418        74.22121        -0.71224
C         51.31555        73.53928        -0.56841
C         53.89099        46.23622         1.10314
C         55.21052        48.31400         0.79417
C         53.99247        47.66611         0.88538
C         55.31037        49.76907         0.58205
C         53.99515        50.52509         0.44371
C         55.05007        52.29848         1.71526
C         53.95939        51.91346         0.99203
C         54.93527        54.44214         1.94937
C         53.72621        54.99232         1.49611
C         55.01517        57.03460         1.07528
C         53.75835        56.35267         1.08566
C         55.00662        58.45788         0.56117
C         53.76562        59.18480         1.01602
C         55.01990        61.39753         0.60786
C         53.77634        60.68868         0.95794
C         54.98834        62.77258         0.42046
C         53.75640        63.50571         0.44292
C         54.93285        65.62316        -0.20085
C         53.73680        64.92757         0.16962
C         54.93704        67.01654        -0.54344
C         53.74314        67.73458        -0.55292
C         55.00292        69.89464        -0.91550
C         53.65913        69.19605        -0.95042
C         54.99513        71.35463        -0.85358
C         53.76100        72.08622        -0.69124
C         55.01357        74.21610        -0.78318
C         53.76998        73.52534        -0.74979
C         56.52345        50.54095         0.97713
C         57.48900        52.78315         1.65328
C         56.39941        51.82278         1.46829
C         57.42937        54.16439         1.71834
C         56.21349        54.98283         1.68706
C         57.49725        57.10154         1.42185
C         56.21726        56.35815         1.32578
C         57.50397        58.57605         1.13497
C         56.24996        59.26803         0.81455
C         57.51856        61.34239         0.44150
C         56.26076        60.64697         0.64004
C         57.52301        62.72035         0.11475
C         56.28421        63.55080         0.40295
C         57.39554        65.50652        -0.88891
C         56.15314        64.82297        -0.40970
C         57.38514        66.98788        -1.01441
C         56.20662        67.69592        -0.86926
C         57.45979        69.86432        -1.14557
C         56.17048        69.15994        -0.99989
C         57.45761        71.37458        -1.08708
C         56.18756        72.08017        -0.88006
C         57.48545        74.21477        -0.70024
C         56.22745        73.51841        -0.77311
C         58.77674        54.89561         1.76140
C         59.92320        57.03380         1.06081
C         58.77050        56.35539         1.32711
C         59.96570        58.46687         0.77530
C         58.76368        59.22108         0.76043
C         59.97534        61.26775         0.16341
C         58.74628        60.59886         0.42131
C         59.97562        62.65621        -0.17221
C         58.71680        63.34894        -0.27577
C         59.99163        65.46377        -0.92256
C         58.69224        64.73326        -0.81052
C         59.91748        66.95480        -0.79722
C         58.69510        67.68651        -1.37733
C         59.96438        69.87205        -0.93497
C         58.69818        69.12401        -0.90536
C         59.94317        71.30201        -0.49832
C         58.67281        72.06611        -0.55916
C         59.95384        74.19310        -0.37341
C         58.70623        73.55008        -0.55975
C         61.17419        59.13614         0.52420
C         62.42785        61.23333         0.12454
C         61.20542        60.53381         0.25644
C         62.45381        62.62587        -0.09969
C         61.22747        63.32088        -0.32427
C         62.57947        65.51951        -0.32949
C         61.29389        64.74923        -0.65358
C         62.44093        66.98306        -0.16885
C         61.18832        67.68772        -0.53693
C         62.57090        69.91052        -0.51399
C         61.27405        69.15304        -0.82908
C         62.35830        71.33367        -0.06167
C         61.21531        72.03792        -0.30149
C         62.40276        74.17738        -0.02473
C         61.17842        73.49613        -0.19683
C         63.69931        63.34279        -0.01904
C         65.10784        65.33435         0.14530
C         63.80475        64.72938         0.04632
C         65.28628        66.65162         0.60762
C         63.36180        67.74519         0.51279
C         64.81413        69.73397         0.57190
C         63.56978        69.14850         0.34158
C         64.82880        71.22487         0.67035
C         63.55802        72.02841         0.44134
C         64.85713        74.12524         0.35952
C         63.62352        73.49292         0.22974
C         66.28177        67.61124         0.39913
C         67.26915        69.80733         0.59640
C         66.10026        69.02893         0.61784
C         67.30183        71.23901         0.58334
C         66.08680        71.96995         0.58677
C         67.33259        74.06082         0.49208
C         66.08304        73.38872         0.50542
C         68.52670        71.94869         0.55710
C         68.52800        73.34433         0.52544
O         42.57313        70.79289         1.61630
O         62.24031        65.11475        -1.71216
O         34.00978        65.02650         0.75165
O         51.53082        52.33394        -1.05288
O         27.70573        71.51545         2.96831
O         48.79871        52.27706        -1.44080
O         41.43723        59.88457         0.47141
O         54.90082        53.27115         2.70213
O         33.36064        55.52708        -1.99428
O         50.91385        48.35825         2.49420
O         52.24029        53.12218         2.33389
O         33.71516        59.85046        -2.91036
O         39.97714        66.25351         0.80199
O         44.56000        54.21594        -2.27080
O         49.51054        43.82442         2.95675
O         40.99149        41.84886        -1.69073
O         32.19309        56.85106         0.66210
O         35.95575        50.46330         1.32466
O         46.75897        71.50349        -1.37439
O         51.05390        67.54344         1.67381
O         45.23956        70.89858         1.76409
O         36.95121        52.08105        -1.77278
O         59.10455        71.45904         0.71294
O         56.50228        64.77839        -1.82652
O         57.57849        70.73514        -2.39297
O         45.66524        41.38239         2.36010
O         57.49376        58.05276         2.55055
O         47.56362        54.49813        -1.93269
O         39.83298        61.08106        -2.51516
O         32.98694        63.63422        -2.39952
O         54.76813        50.22548        -0.74464
O         39.90159        70.74330         1.53748
O         42.63230        57.84591        -2.47149
O         46.23356        56.87111        -2.21735
O         24.54386        69.29419         0.74367
O         60.79040        69.55034        -2.16510
O         47.11218        57.70869         1.09701
O         53.90872        59.93468         2.24484
O         45.03879        49.75797         2.28316
O         30.88929        66.18407         1.92855
O         45.97903        34.87391        -0.23940
O         49.94620        52.33462         2.05701
O         31.16619        59.77134        -2.10338
O         60.19070        67.40402         0.56422
O         35.28227        57.47068        -2.72004
O         63.95789        71.64359         1.80178
O         43.66030        38.12858         1.18186
O         43.46125        47.24204         2.44686
O         64.21426        67.10068         1.40449
O         47.27744        50.92474         1.81452
O         42.46720        44.24592        -1.18782
O         46.97986        59.96675        -1.93991
O         49.49210        41.19333         2.46584
O         37.95955        66.67236        -2.46359
O         45.67496        45.97106         2.76528
O         59.38636        64.89053        -2.10829
O         32.35474        70.82498        -1.63896
O         44.70758        61.27427        -2.27961
O         49.83955        62.07885         2.12934
O         35.87267        71.96425        -1.98492
O         47.70509        41.73400        -0.63372
H         48.42101        41.20180        -1.04488
O         53.75674        43.45678         0.76688
H         53.58153        43.64717        -0.17705
O         53.16107        69.28367        -2.31097
H         53.85270        68.94152        -2.91513
O         48.64052        65.01982         2.35264
H         49.16740        64.27558         2.71956
O         53.19554        69.87217         1.27974
H         52.51464        70.17139         1.91817
O         43.14637        42.04396         2.23969
H         43.88799        41.95739         2.88763
O         54.87172        58.36882        -0.90105
H         55.61348        57.83123        -1.24948
O         35.31119        63.02232        -3.27286
H         34.37534        62.99671        -3.58482
O         33.44522        67.78577        -2.30683
H         34.04874        68.31499        -2.87156
O         49.59916        58.44254         2.34868
H         48.67412        58.10262         2.38983
O         42.79454        67.48801        -2.11005
H         43.58990        67.02019        -2.44560
O         58.78281        67.69966        -2.82013
H         59.49603        68.33541        -3.06479
O         63.27522        70.06130        -1.79006
H         62.58058        70.14869        -2.48570
O         59.78117        54.16800         1.05192
H         59.54871        54.15972         0.10115
O         51.87885        66.86172        -1.77077
H         52.57087        66.44772        -2.32914
O         41.53053        55.20310         1.19302
H         41.43694        54.32277         1.61702
O         56.46999        64.03647         1.77349
H         56.39898        63.27110         2.38304
O         35.02536        53.66258        -2.52327
H         34.59717        54.42477        -2.97940
O         47.63403        39.48674         2.27991
H         47.50490        38.51957         2.35720
O         48.88171        49.80551        -1.22557
H         48.98400        50.53432        -1.88847
H         23.06125        75.03999         2.35151
H         25.40451        75.12132         1.75963
H         27.93298        75.21923         1.44662
H         30.35960        75.29296         1.04820
H         32.78259        75.35683         0.46498
H         35.21268        75.42505         0.04792
H         37.71931        75.47401        -0.35693
H         40.14614        75.37632        -0.83103
H         42.64277        75.30810        -0.98334
H         45.13327        75.36772        -0.79590
H         47.64271        75.33816        -0.69611
H         50.07206        75.31834        -0.73568
H         52.54531        75.31890        -0.78604
H         55.01588        75.31615        -0.77310
H         57.46712        75.31517        -0.69230
H         59.97339        75.29321        -0.33412
H         62.41306        75.27719        -0.07041
H         64.91611        75.22056         0.26953
H         67.35077        75.15899         0.44452
H         22.39285        69.27111         3.32701
H         21.07423        71.27249         3.05172
H         21.01402        73.74472         2.93949
H         24.79543        64.90257         1.85541
H         23.80301        66.81315         2.86829
H         27.05951        60.76828         0.30978
H         25.89436        62.85285         1.04926
H         29.08200        56.47418        -0.64418
H         28.12234        58.79267        -0.11756
H         31.78618        52.32850         0.56380
H         30.48599        54.06599        -0.03601
H         34.33547        47.79706         0.05495
H         32.77268        50.18639         0.30619
H         36.83560        43.76768         0.06692
H         35.60166        45.89016         0.27036
H         39.28839        39.41045        -0.39558
H         38.03158        41.67887        -0.12944
H         41.88773        35.53309        -1.98095
H         40.58441        37.45502        -1.17497
H         45.37912        32.74994        -3.57189
H         43.20332        33.65451        -2.85023
H         47.49998        33.88985        -3.02278
H         48.69872        35.86511        -1.86608
H         49.80698        37.70291        -0.88889
H         50.99301        39.65546        -0.12367
H         52.34414        41.56846         0.90591
H         53.05732        43.96266         2.62864
H         54.82055        45.64712         1.12104
H         56.13756        47.74040         0.94866
H         57.51554        50.09339         0.81007
H         58.50607        52.35905         1.59059
H         59.10154        54.89714         2.84102
H         60.87688        56.48381         1.05086
H         62.12259        58.57989         0.56049
H         63.37581        60.69128         0.25598
H         64.60903        62.74466         0.14313
H         65.97537        64.73770        -0.17598
H         67.25152        67.29358        -0.01387
H         68.23618        69.28265         0.55063
H         69.47517        71.39339         0.57229
H         69.48455        73.88533         0.51446
