         651
 CSIRO Nanostructure Databank - Neutral Graphene Oxide Data Set
C          5.91136        31.76778         0.08966
C          5.93031        33.12329        -0.08237
C          8.35308        27.45290         0.27571
C          8.33593        28.80981         0.08638
C          7.11926        29.59917         0.13580
C          8.27242        31.64662        -0.67083
C          7.08599        30.95500        -0.11332
C          8.33633        33.11531        -0.73512
C          7.12064        33.86024        -0.45790
C          8.31747        35.98919        -0.82640
C          7.13887        35.24247        -0.46556
C          8.34695        37.35591        -0.70559
C         10.93994        23.03097         0.55909
C         10.44882        24.31683         0.09201
C          9.60913        25.20475         0.69776
C         10.86049        27.36344        -0.12697
C          9.61930        26.67273         0.37157
C         10.76233        28.76592        -0.68585
C          9.65017        29.56855         0.01429
C         10.83084        31.66095        -0.76003
C          9.56840        30.90257        -0.69060
C         10.80434        33.04856        -0.98419
C          9.53407        33.75886        -0.99940
C         10.79506        35.95510        -1.58416
C          9.50698        35.21970        -1.28792
C         10.79079        37.47475        -1.49457
C          9.51840        38.17593        -1.05553
C         10.81896        40.28457        -0.52393
C          9.61468        39.55037        -0.55495
C         10.80892        41.62201        -0.11907
C         13.20499        18.64262         0.43503
C         12.93138        20.02035         0.08468
C         12.23553        21.03434         0.69265
C         13.23321        23.05552        -0.75592
C         12.11445        22.40715         0.18063
C         13.35600        24.56588        -0.61356
C         12.20221        25.32666        -0.78478
C         13.33337        27.40868        -0.35172
C         12.13586        26.68578        -0.47614
C         13.29276        28.85602        -0.34461
C         12.07698        29.52536        -0.51839
C         13.28168        31.67265        -0.54615
C         12.05802        30.94636        -0.61229
C         13.24165        33.08659        -0.70947
C         12.04775        33.76101        -0.99798
C         13.37181        35.95785        -1.27734
C         12.09088        35.19224        -1.42525
C         13.38282        37.46063        -1.31897
C         12.08948        38.23209        -1.35130
C         13.29521        40.28532        -0.64960
C         12.09566        39.62440        -0.82561
C         13.30873        41.80309        -0.50753
C         12.05177        42.40894         0.20648
C         12.85585        44.78967         0.20642
C         11.92065        43.87860        -0.21886
C         13.18972        46.13111        -0.14472
C         15.82752        14.52979        -0.14506
C         15.75938        15.93836        -0.02507
C         14.57114        16.64384         0.21477
C         15.74468        18.90263         0.31203
C         14.45904        18.06793         0.19104
C         15.83954        20.31630        -0.24796
C         14.71777        21.06258        -0.65725
C         15.79396        23.15529        -0.19088
C         14.60975        22.43758        -0.52773
C         15.79601        24.58085        -0.09708
C         14.55598        25.27213        -0.32384
C         15.78501        27.42798        -0.09013
C         14.55883        26.69903        -0.27679
C         15.76585        28.85560        -0.11641
C         14.52919        29.57444        -0.26079
C         15.76527        31.71112        -0.21472
C         14.52193        30.98539        -0.34156
C         15.75508        33.12762        -0.22045
C         14.47156        33.83240        -0.36085
C         15.80583        36.01610        -0.45562
C         14.50581        35.31482        -0.53305
C         15.76420        37.44286        -0.56654
C         14.60182        38.14484        -0.85051
C         15.77514        40.29084        -0.77116
C         14.56416        39.59327        -0.79060
C         15.81817        41.66749        -0.42877
C         14.66135        42.35099        -0.03456
C         15.86275        44.54060         0.07015
C         14.80054        43.70197         0.41325
C         15.77489        45.98884         0.07253
C         14.48224        46.71199         0.06186
C         15.74189        48.86099         0.26428
C         14.53322        48.11683         0.10864
C         15.72267        50.22434         0.48890
C         18.37130        10.35862        -0.16259
C         18.34502        11.71777        -0.48117
C         17.09890        12.42819        -0.43873
C         18.35274        14.54279        -0.10398
C         17.04145        13.81876        -0.31920
C         18.29398        16.01202        -0.45978
C         16.98835        16.72221        -0.28535
C         18.23148        18.80889         0.16328
C         17.02893        18.15863         0.01771
C         18.33374        20.29167        -0.10023
C         17.02646        21.02742        -0.05240
C         18.22970        23.16650         0.28051
C         17.02549        22.44907        -0.04888
C         18.18791        24.55512         0.47764
C         16.98735        25.28492         0.19622
C         18.21796        27.46907         0.26415
C         17.00115        26.73142         0.14943
C         18.21181        28.86116         0.14563
C         16.98920        29.57560        -0.01196
C         18.20459        31.74165         0.22135
C         16.98504        31.00816        -0.03027
C         18.15081        33.16735         0.26325
C         16.95353        33.86370        -0.01225
C         18.23278        36.03517         0.03390
C         16.96274        35.31973        -0.10030
C         18.26782        37.43814        -0.21202
C         16.98780        38.23217        -0.18373
C         18.33673        40.24979        -0.78763
C         17.04900        39.50145        -1.01911
C         18.30276        41.72087        -1.09044
C         17.12686        42.34114        -0.34724
C         18.31014        44.58448        -0.66604
C         17.12376        43.83564        -0.19338
C         18.23886        46.05683        -0.45813
C         16.96534        46.72797        -0.06965
C         18.20654        48.89482         0.03604
C         17.01153        48.16099         0.08163
C         18.25689        50.27544         0.44994
C         16.95715        50.99328         0.87440
C         18.15118        53.22527         0.87682
C         17.09910        52.36339         0.24959
C         18.42951        54.54215         0.18841
C         20.78631         6.02781        -0.08247
C         20.80986         7.46720         0.09285
C         19.58164         8.22072        -0.01758
C         20.73397        10.25466         0.79406
C         19.54958         9.59102         0.15041
C         20.82537        11.82584        -1.16838
C         19.55417        12.48434        -0.83138
C         20.79296        14.63819        -0.90727
C         19.54706        13.84687        -0.71022
C         20.80189        16.08063        -0.48789
C         19.53112        16.76307        -0.16826
C         20.70967        18.74581         0.74229
C         19.49513        18.08498         0.17691
C         20.68491        20.27943         0.95666
C         19.47759        21.03705         0.52348
C         20.68247        23.13493         0.93266
C         19.45034        22.40498         0.52241
C         20.64614        24.58721         1.23436
C         19.35929        25.31046         1.00073
C         20.79004        27.43871         0.59904
C         19.45068        26.79086         0.74778
C         20.80282        28.87837         0.22349
C         19.48514        29.61275         0.13160
C         20.72665        31.81261         0.42056
C         19.42854        31.05254         0.37925
C         20.58322        33.19126         1.08625
C         19.25288        33.94855         0.93059
C         20.65441        36.05220         0.46716
C         19.40985        35.35535         0.39362
C         20.68431        37.42066         0.04336
C         19.48195        38.12673        -0.26274
C         20.78511        40.24034        -0.76205
C         19.50799        39.56770        -0.56691
C         20.81362        41.69594        -0.89296
C         19.60946        42.42974        -0.81476
C         20.78087        44.59729        -0.47641
C         19.61146        43.85631        -0.65285
C         20.79311        46.02730        -0.37187
C         19.52124        46.76312        -0.10295
C         20.75693        48.96203        -0.31327
C         19.44650        48.21829        -0.54400
C         20.72162        50.38276         0.12638
C         19.43915        50.98829         0.55630
C         20.76687        53.12869         1.18929
C         19.45929        52.39509         1.05648
C         20.82397        54.57467         0.81532
C         19.61240        55.20249         0.27384
C         20.91376        57.39282         0.17984
C         19.69182        56.61987        -0.27415
C         20.88800        58.73515         0.33823
C         23.19588         3.18276        -0.31722
C         21.98297         3.87178        -0.27800
C         23.23818         6.05315        -0.42240
C         21.95018         5.29060        -0.21038
C         23.29091         7.32510         0.41494
C         22.01139         8.11374         0.33544
C         23.21656        10.19876        -0.15443
C         22.11587         9.56899         0.71055
C         23.28965        11.61122        -0.73346
C         22.00501        12.40720        -0.75967
C         23.30655        14.57750        -0.35523
C         22.12585        13.89353        -1.01634
C         23.28665        16.01646        -0.10707
C         22.05282        16.71902        -0.03244
C         23.15697        18.38796         1.29342
C         21.97729        17.95045         0.65348
C         23.09605        20.53023         1.50272
C         21.95559        21.05825         0.99865
C         23.19358        23.26974         1.00780
C         21.97935        22.49474         0.49759
C         23.17604        24.58213         1.34810
C         21.90918        25.41315         1.52126
C         23.28697        27.46354         0.71424
C         21.97493        26.79511         0.86986
C         23.29848        28.88998         0.57730
C         22.03685        29.63390         0.58149
C         23.17933        31.73351         1.18678
C         21.94908        30.99127         0.82142
C         23.16641        33.25058         1.32211
C         21.85085        33.98352         1.25267
C         23.12404        36.07691         0.71060
C         21.87668        35.41334         0.86286
C         23.13982        37.43152         0.24245
C         21.92669        38.09511        -0.08230
C         23.21593        39.85625        -1.08986
C         21.93216        39.41852        -0.66378
C         23.24645        42.01836        -1.34598
C         22.04494        42.47782        -0.87327
C         23.25644        44.66584        -0.90112
C         22.08515        43.87868        -0.27837
C         23.25964        46.12212        -0.50577
C         22.04643        46.75836        -0.33177
C         23.30695        48.94349        -0.18596
C         22.02526        48.20106         0.12702
C         23.28638        50.45570        -0.15016
C         22.03461        50.96044         0.56729
C         23.33508        53.10136         1.00846
C         22.06185        52.36227         1.07195
C         23.23370        54.53709         1.44288
C         22.03177        55.21566         0.81740
C         23.46960        57.33456         0.54824
C         22.16911        56.60971         0.32932
C         23.46160        58.83129         0.59849
C         22.11280        59.54699         0.53956
C         23.19659        61.51253         1.56261
C         22.04739        60.87087         1.16065
C         24.43375         3.84231        -0.26592
C         25.70852         5.95570        -0.14138
C         24.50968         5.25237        -0.22949
C         25.73873         7.39464        -0.12805
C         24.51684         8.11211         0.01979
C         25.71439        10.25143        -0.25370
C         24.44888         9.51040        -0.17114
C         25.70289        11.61369        -0.07227
C         24.37700        12.33360         0.10966
C         25.73368        14.52020        -0.00877
C         24.43583        13.83386        -0.11674
C         25.76894        16.02831         0.10762
C         24.47914        16.69805         0.26236
C         25.68550        18.70238         1.26796
C         24.43672        17.93287         0.93853
C         25.68826        20.22754         1.40985
C         24.43557        21.02982         1.14763
C         25.74366        23.19525         1.23477
C         24.47492        22.51890         0.92760
C         25.72791        24.52276         1.54786
C         24.44422        25.34031         1.69206
C         25.75216        27.01087         0.38931
C         24.47955        26.64624         0.86177
C         25.77002        29.23177         0.12651
C         24.50775        29.71647         0.53052
C         25.63817        31.87704         1.04573
C         24.46646        31.09923         0.88700
C         25.62074        33.29785         1.23027
C         24.41736        34.00638         1.14076
C         25.64717        36.10324         0.70251
C         24.39687        35.41495         0.91392
C         25.63880        37.46486         0.27104
C         24.40545        38.09555         0.06515
C         25.61220        40.21803        -0.68236
C         24.38843        39.38209        -0.55191
C         25.42081        41.64693        -0.27134
C         24.50690        42.54784        -0.83375
C         25.75026        44.65866        -0.43506
C         24.55961        43.96094        -0.61504
C         25.69708        46.07657        -0.12862
C         24.51864        46.81416        -0.30973
C         25.75171        49.05514        -0.39937
C         24.49946        48.28229        -0.31816
C         25.75172        50.38395         0.20457
C         24.55463        51.04791         0.42448
C         25.81038        53.09178         1.13304
C         24.54445        52.43308         0.83785
C         25.74905        54.47044         1.67091
C         24.54678        55.26883         1.33507
C         25.84969        57.36427         1.44444
C         24.61755        56.62035         1.17107
C         25.77963        58.78950         1.51677
C         24.59802        59.50933         1.25996
C         24.45969        60.87061         1.58440
C         26.95244         8.10919        -0.25303
C         28.20072        10.22423        -0.11672
C         26.98049         9.52127        -0.22510
C         28.24043        11.61502         0.15701
C         26.94152        12.29419         0.33047
C         28.22024        14.51970         0.44614
C         26.94234        13.79276         0.45780
C         28.21742        15.93769         0.55036
C         26.99716        16.68449         0.59826
C         28.21114        18.76996         0.96639
C         26.98309        18.04168         0.93940
C         28.21821        20.22813         1.09558
C         26.96324        20.98050         1.19990
C         28.21581        23.11919         1.13077
C         26.95268        22.36747         1.17688
C         28.25738        24.50763         1.55730
C         26.99915        25.29884         1.79472
C         28.25305        27.02947         0.52809
C         26.99033        26.45694         0.79957
C         28.25901        29.26452         0.39899
C         26.98192        29.90589         0.45700
C         28.09117        31.83777         1.46525
C         26.91078        31.22539         0.97951
C         28.19831        33.32086         1.63411
C         26.88334        34.05874         1.40371
C         28.15201        36.10711         0.73214
C         26.89801        35.44383         0.91176
C         28.16029        37.49606         0.36584
C         26.92888        38.04167        -0.31923
C         28.17550        40.40620        -0.32190
C         26.95384        39.56883        -0.57085
C         28.25223        41.78377        -0.59368
C         27.26606        42.68163        -1.30416
C         28.22251        44.66724        -0.28104
C         27.05789        44.02056        -0.59419
C         28.28603        46.04093         0.35665
C         26.87847        46.61214         0.61518
C         28.22372        49.13259        -0.53204
C         26.94480        48.52570        -0.89203
C         28.11286        50.54559        -0.26601
C         26.99392        51.12718         0.31023
C         28.29392        53.11812         1.31722
C         27.03096        52.46307         0.89450
C         28.28892        54.44685         1.69128
C         27.05628        55.22135         1.85503
C         27.02636        56.67987         1.72777
C         29.41956        12.35774         0.27627
C         30.66147        14.50473         0.50592
C         29.43831        13.78604         0.43716
C         30.69828        15.91063         0.60341
C         29.44835        16.64097         0.66645
C         30.69466        18.75150         0.53349
C         29.42038        18.05133         0.76352
C         30.70538        20.25091         0.76137
C         29.43142        20.90298         1.09725
C         30.72516        23.03449         1.75781
C         29.51438        22.37058         1.11039
C         30.74060        24.52172         1.45654
C         29.48916        25.19501         1.47432
C         30.64837        27.42017         1.37297
C         29.43599        26.59658         1.13988
C         30.61438        28.93423         1.47131
C         29.33599        29.70238         1.17466
C         30.98438        32.02773         1.61798
C         29.14952        30.97602         1.77066
C         30.70695        33.36069         1.16421
C         29.47461        34.02251         1.25641
C         30.60028        36.13766         0.54204
C         29.40063        35.42132         0.89254
C         30.58135        37.54725         0.37663
C         29.33618        38.23937         0.38243
C         30.66193        40.45590         0.58758
C         29.27405        39.74423         0.47424
C         30.65141        41.81606        -0.07001
C         29.47769        42.50485        -0.33625
C         30.65615        44.68547        -0.38420
C         29.48637        43.96019        -0.42022
C         30.64540        46.15808        -0.54040
C         29.35875        46.91284        -0.38910
C         30.68815        49.01197         0.12284
C         29.40282        48.41928        -0.28502
C         30.84273        50.28219         0.76658
C         29.92083        51.35168         0.64653
C         29.54487        52.37781         1.49341
C         31.93429        16.61686         0.64422
C         33.16044        18.77917         0.54527
C         31.97929        18.02578         0.61471
C         33.17657        20.21205         0.65755
C         31.98513        20.91021         0.99942
C         33.29072        23.09868         1.12425
C         32.03256        22.30768         1.44419
C         33.19801        24.57131         0.94843
C         31.93964        25.26699         1.21344
C         33.17717        27.40582         0.98416
C         31.92360        26.67449         1.23323
C         33.19053        28.94172         0.97401
C         31.99725        29.75677         1.55933
C         32.89458        31.77162         0.15114
C         31.92853        31.18843         1.04197
C         32.90586        33.15261        -0.07221
C         31.98214        34.03725         0.74736
C         32.89921        36.08078        -0.32275
C         31.81335        35.43760         0.25017
C         32.93032        37.51132        -0.39426
C         31.79563        38.24908         0.04448
C         33.07783        40.31865        -0.16075
C         31.86733        39.66453         0.10737
C         33.20743        41.79809         0.18710
C         31.92415        42.49203        -0.29340
C         33.22010        44.68647        -0.01892
C         31.93580        43.98490        -0.44555
C         33.14103        46.17646        -0.26780
C         31.93922        46.86320        -0.34327
C         31.86970        48.24108         0.01465
C         34.36195        20.95018         0.40742
C         35.47349        23.09140        -0.04268
C         34.40685        22.37093         0.46179
C         35.61672        24.56013         0.23941
C         34.28404        25.25218         0.43179
C         35.28813        27.37529        -0.34067
C         34.24778        26.68272         0.27364
C         35.23132        28.81364        -0.48705
C         34.13935        29.53964         0.01753
C         35.21264        31.66675        -0.94088
C         33.93461        30.91772        -0.43551
C         35.21029        33.12622        -0.88505
C         34.03684        33.81677        -0.65366
C         35.27632        35.98069        -1.19306
C         33.94823        35.27311        -1.05135
C         35.22183        37.43744        -1.40962
C         34.09366        38.20379        -0.83761
C         35.44664        40.29903        -0.97052
C         34.18576        39.59948        -0.69111
C         35.51233        41.72134        -0.84965
C         34.40386        42.51411        -0.49067
C         34.36201        43.89406        -0.61898
C         36.50036        25.28684        -0.73951
C         37.27443        27.31887        -1.95577
C         36.37111        26.61542        -0.96675
C         37.50860        28.77037        -1.60136
C         36.39211        29.50756        -1.03396
C         37.73858        31.59278        -1.09908
C         36.45285        30.89991        -0.99591
C         37.76985        33.09280        -1.14418
C         36.48897        33.85736        -1.00523
C         37.72226        35.96475        -1.62305
C         36.45180        35.29683        -1.34811
C         37.77584        37.34117        -1.66817
C         36.55819        38.16055        -1.62531
C         36.59462        39.58754        -1.30181
C         38.63700        29.40996        -2.04209
C         39.96541        31.60485        -2.35654
C         38.90931        30.80821        -1.68758
C         39.97613        32.96178        -2.35553
C         38.90945        33.77993        -1.79920
C         38.89262        35.14784        -1.91211
O         35.61888        37.86447        -2.74967
O         20.74266        15.69192        -1.93281
O         26.00003        15.35981        -1.18198
O         23.30178        40.84062        -2.07936
O         28.35999        28.11237        -0.36956
O         23.13781        56.77158        -0.76898
O         12.90234        38.05481        -2.56322
O         26.73177        47.31520         1.61175
O          9.95414        35.48372        -2.66858
O         20.30168        29.23912        -1.11583
O         10.60027        27.32487         1.32171
O         13.03819        35.34962        -2.55231
O         19.12342        26.25249         2.09585
O         24.48799        21.59274        -0.21802
O         28.46691        40.10181         1.61361
O         17.55426        16.40240        -1.63866
O         38.79439        31.05709        -0.24472
O         20.84790        50.02258        -1.32539
O         26.37984        39.92513        -1.88758
O         29.03194        22.95202        -0.13032
O         25.83234        28.03712        -0.58336
O         27.48488        33.89720         2.75911
O         22.14624        51.19264         1.98386
O         33.03687        22.60431         2.48537
O         19.86478        46.55432         1.26955
O         17.48492        42.92806         0.92835
O         20.58482        11.23933         1.50581
O          8.76800        30.95807        -1.90549
O         13.77531        44.27616         1.16309
O         11.00142        24.70847        -1.14221
O         30.49368        28.15428         2.69778
O         29.77566        46.49769        -1.72666
O         29.21021        51.33022        -0.57949
O         32.07865        43.10655        -1.61700
O         23.03095        59.48257        -0.62077
O         14.14324        34.76355         0.77736
O         26.84526        42.48211        -2.43041
O         30.14333        31.48461         2.60138
O         20.57645        23.57351         2.32256
O         26.73521        12.96841         1.66062
O         20.43269        19.34796         2.05078
O         13.59933        20.35794        -1.12085
O         25.69130        19.36853         2.58006
O         26.25507        54.69139         3.02042
O         33.36423        41.98016         1.55144
O         23.05328        19.37118         2.27939
O         37.38705        33.64792         0.16043
O         34.18006        31.13482        -1.84811
O         33.79031        28.19240         2.07250
O         30.63426        19.66190        -0.60877
O         20.02438        52.68602         2.37560
O         21.06976        33.48760         2.41513
O         18.13849        45.47278        -1.81012
O         23.20762        32.38179         2.50310
O          9.93599        38.07737        -2.49360
O         22.95024        54.51976         2.88277
H         23.68594        54.04615         3.32865
O         22.34420        43.80077         1.14913
H         21.49544        43.89297         1.63153
O         12.82941        22.78975        -2.11241
H         12.80920        21.81149        -2.21981
O         33.31000        44.61912         1.42730
H         33.35142        43.64039         1.69322
O         21.80382        25.74250         2.94442
H         21.33932        24.98838         3.37827
O         10.46734        28.63207        -2.08936
H         10.06909        29.46570        -2.42464
O         18.68710        20.31321        -1.54305
H         18.02387        19.77203        -2.02433
O         33.43780        35.21200        -2.43588
H         33.55394        36.09986        -2.83885
O         21.94631        48.15933         1.57768
H         21.18476        47.54984         1.79914
O         24.40612        25.71681         3.09656
H         23.46633        25.96103         3.31772
O         17.06307        39.12720        -2.42229
H         17.18699        39.95949        -2.93426
O         23.26880        50.97417        -1.51544
H         22.46064        50.61415        -1.95369
O         18.48821        57.33269         0.00581
H         18.30461        57.27020         0.96526
O         22.50695        13.94624        -2.44256
H         22.13445        14.79216        -2.79575
O         18.70237        34.15444         2.27373
H         19.47176        34.14850         2.89543
O         20.80630        10.58354        -1.71647
H         21.72142        10.33458        -1.97518
O         36.65738        27.26332        -3.26121
H         35.82384        27.77684        -3.22459
O         17.69195        53.60081         2.21389
H         18.50661        53.64726         2.77556
O         23.77301        11.47535        -2.09501
H         23.59990        12.33873        -2.54432
O         26.98900        37.41852        -1.64342
H         26.59149        38.06556        -2.27571
O         15.78422        19.15388         1.76642
H         15.84448        18.28665         2.22092
O         19.23649        48.15668        -1.97475
H         19.49939        49.03071        -2.34282
O         12.18420        42.27662         1.63579
H         12.79776        42.98688         1.94466
O         18.59195        14.54296         1.34378
H         18.71406        13.61151         1.63022
O         26.94960        47.49407        -1.78451
H         27.86182        47.30665        -2.09748
O         26.05686        41.96033         0.87272
H         25.81441        42.86008         1.17966
O         36.30661        24.63183         1.54002
H         35.71057        24.23951         2.21391
O         16.90187        51.05923         2.30885
H         17.05845        52.00089         2.58087
O         23.06281        44.61045        -2.34172
H         23.86501        44.96997        -2.77565
O         30.49836        22.87563         3.18399
H         31.35814        23.05143         3.62992
O         22.00242        22.55378        -0.94400
H         22.86172        22.16513        -1.23214
O         22.66085         9.63709         2.06990
H         22.91039        10.58282         2.21838
O         23.22593         6.49221        -1.81410
H         23.19907         5.69200        -2.37926
O         21.00291        32.16803        -0.98971
H         20.90764        31.33424        -1.50894
O         24.02685        12.15943         1.51930
H         24.81652        12.45753         2.03462
O         10.05859        29.89185         1.36144
H         10.26842        29.03179         1.80717
O         13.20413        42.28901        -1.88241
H         13.81062        41.76207        -2.44518
O         30.85852        40.72344         1.99382
H         29.94220        40.71115         2.38254
O         16.82244        38.65372         1.20119
H         16.79812        37.85095         1.76371
O         23.46847         6.96129         1.81083
H         23.33218         7.78860         2.33195
O         27.05795        25.82384         3.14018
H         26.13067        26.00340         3.43441
O         32.74017        34.20199         2.01144
H         32.15510        34.65587         2.65554
O         32.26127        29.92397         2.95299
H         31.96286        29.10491         3.41384
O         17.98828        41.87156        -2.52114
H         18.83174        41.84473        -3.02152
O         28.85395        45.87955         1.67930
H         28.33541        46.46638         2.28166
H          4.98498        31.27296         0.41759
H          5.01446        33.70376         0.10401
H          7.40273        26.90533         0.37430
H          6.19340        29.09453         0.45540
H          6.23211        35.80213        -0.19114
H          7.45874        37.87766        -0.31712
H         10.29042        22.48637         1.26635
H          9.12174        24.92844         1.64576
H          8.69280        40.03712        -0.20198
H          9.84159        42.08300         0.13518
H         12.37784        17.98975         0.76099
H         11.64671        20.79397         1.59208
H         11.18289        44.14950        -0.98689
H         12.39903        46.79503        -0.52831
H         14.88860        13.95535        -0.10316
H         13.64091        16.06640         0.33920
H         13.58500        48.67624         0.09506
H         14.75613        50.71487         0.68477
H         17.40359         9.83057        -0.11812
H         16.16670        11.84342        -0.39177
H         17.01923        52.40149        -0.85154
H         17.56452        55.08246        -0.22786
H         19.81059         5.51856        -0.06026
H         18.68159         7.69589        -0.37414
H         19.76582        56.54825        -1.39608
H         19.92602        59.26369         0.23915
H         23.18264         2.08380        -0.34256
H         21.03754         3.31038        -0.24332
H         23.12779        62.53495         1.96112
H         21.06563        61.34523         1.30377
H         25.36043         3.25129        -0.21881
H         26.66322         5.40746        -0.12162
H         26.66029        59.33599         1.88742
H         25.32488        61.41156         1.99410
H         27.90141         7.55427        -0.30509
H         29.14543         9.66139        -0.16139
H         29.24542        54.94666         1.90700
H         27.96803        57.24014         1.83178
H         30.38429        11.83677         0.17958
H         31.60964        13.94760         0.47242
H         31.74335        50.42044         1.38510
H         30.14811        52.60707         2.38445
H         32.87482        16.04640         0.64238
H         34.12421        18.25762         0.45096
H         34.04768        46.76049        -0.03768
H         32.81536        48.73195         0.29397
H         35.24994        20.41381         0.04177
H         36.32401        22.55661        -0.49258
H         36.49583        42.20316        -0.97676
H         35.11976        44.40285        -1.23858
H         37.31992        24.72374        -1.21208
H         38.24726        26.77611        -2.04008
H         38.74786        37.85071        -1.75159
H         37.55828        40.11696        -1.36435
H         39.37722        28.86311        -2.64587
H         40.77336        31.05725        -2.86511
H         40.80169        33.49124        -2.85542
H         39.76978        35.65948        -2.33791
