         261
 CSIRO Nanostructure Databank - Neutral Graphene Oxide Data Set
C        -11.12804         0.67912         0.24146
C         -9.92044         1.40332         0.70076
C         -8.66460         0.60921         0.96519
C         -7.30150         1.27045         1.01677
C         -6.06037         0.51541         0.60632
C         -4.71111         1.23983         0.54335
C         -3.53906         0.52576        -0.10595
C         -2.29417         1.29274        -0.45223
C         -1.47559         0.82006        -1.65583
C         -0.06218         1.47999        -1.84194
C          1.22989         0.67701        -1.73830
C          2.51655         1.39266        -1.29467
C          3.56989         0.69429        -0.48924
C          4.53194         1.50212         0.34481
C          5.62905         0.76026         1.04962
C          6.88928         1.49563         1.43543
C          8.19445         0.94303         0.92786
C          9.44650         1.46370         1.54618
C         10.63592         0.61052         1.52776
C         -9.73386         2.83297         0.43712
C         -8.53980         3.49021         0.65304
C         -7.27531         2.80142         1.16913
C         -6.01276         3.44806         0.57273
C         -4.67297         2.74014         0.72367
C         -3.41174         3.52587         0.38694
C         -2.20005         2.77629        -0.16561
C         -1.07931         3.58042        -0.76899
C         -0.00433         2.96207        -1.62758
C          1.32627         3.68606        -1.63586
C          2.57715         2.90050        -1.39235
C          3.84270         3.63558        -0.97276
C          4.68972         2.99548         0.10984
C          5.83212         3.74557         0.76904
C          6.93501         3.00640         1.51160
C          8.27567         3.72199         1.84573
C          9.46770         2.77797         1.89110
C         -8.52623         4.90682         0.48707
C         -7.34860         5.66229         0.39320
C         -6.05729         4.91607         0.27141
C         -4.81967         5.74846         0.56140
C         -3.48817         5.02629         0.26378
C         -2.46061         5.75781        -0.57850
C         -1.12091         5.08963        -0.68363
C          0.08789         5.88659        -1.05393
C          1.33987         5.19441        -1.52541
C          2.63743         5.93647        -1.31131
C          3.91046         5.14613        -1.08012
C          5.13223         5.87574        -0.51488
C          6.18358         5.11352         0.23343
C          7.32877         5.83600         0.85845
C          8.55476         4.95402         0.96718
C         -7.37921         7.05749         0.31003
C         -6.21614         7.84934        -0.05190
C         -4.88963         7.13035        -0.07075
C         -3.59057         7.94805         0.13084
C         -2.54281         7.23799        -0.76379
C         -1.32823         8.06111        -1.11964
C          0.00185         7.37223        -1.27882
C          1.27994         8.13123        -0.98332
C          2.51666         7.31076        -0.67612
C          3.73360         8.01737        -0.18087
C          5.08521         7.36706        -0.29083
C          6.19444         8.01422         0.49408
C          7.34338         7.18378         0.94117
C         -6.20213         9.32235         0.02039
C         -5.05299        10.03932        -0.02840
C         -3.73786         9.43152        -0.16519
C         -2.61556        10.16762        -0.38399
C         -1.32562         9.53082        -0.77875
C         -0.03754        10.13517        -0.36870
C          1.15963         9.49223        -0.40136
C          2.34028        10.08596         0.35409
C          3.72545         9.54404        -0.05528
C          4.76446         9.97798         0.96517
C          5.88247         9.27677         1.20995
C        -11.20560        -0.66867         0.19248
C        -10.04262        -1.54328         0.45391
C         -8.72276        -0.87206         0.74180
C         -7.56258        -1.50084         0.02646
C         -6.27204        -0.78264        -0.14933
C         -5.09084        -1.59760        -0.58796
C         -3.77479        -0.87320        -0.66461
C         -2.70018        -1.48944        -1.50448
C         -1.44957        -0.72119        -1.79444
C         -0.19301        -1.50198        -1.45436
C          1.14850        -0.80412        -1.49652
C          2.20115        -1.48702        -0.63906
C          3.36142        -0.73792        -0.06133
C          4.56432        -1.53647         0.43601
C          5.68116        -0.75004         1.10600
C          6.84327        -1.42962         1.72255
C          8.19554        -1.23785         1.94356
C          9.51077        -1.67682         1.44482
C         10.66057        -0.73724         1.39357
C         -9.88494        -2.93133        -0.17380
C         -8.78474        -3.64652         0.56629
C         -7.78654        -2.95960        -0.32598
C         -6.59804        -3.82406        -0.79403
C         -5.27716        -3.02246        -1.14299
C         -3.97515        -3.77385        -1.29080
C         -2.70450        -3.00784        -1.58828
C         -1.43882        -3.79317        -1.71399
C         -0.20693        -3.01264        -1.30792
C          1.08958        -3.77081        -1.12456
C          2.30702        -3.00008        -0.72562
C          3.68668        -3.59092        -0.92027
C          4.75691        -2.95068        -0.06704
C          6.09732        -3.65500         0.01807
C          7.37582        -2.90861        -0.25465
C          8.65146        -3.61546         0.11317
C          9.64401        -3.01598         0.80339
C         -8.60643        -4.80376         1.21623
C         -7.18052        -5.25721         1.43255
C         -6.28948        -4.99153         0.19190
C         -4.90781        -5.58429         0.30722
C         -3.66759        -4.94511        -0.31700
C         -2.50382        -5.92561        -0.70978
C         -1.50626        -5.35047        -1.74712
C         -0.10720        -5.98184        -1.64649
C          1.18511        -5.17889        -1.63880
C          2.53071        -5.85269        -1.54706
C          3.79088        -5.04535        -1.27499
C          5.04483        -5.82375        -0.97254
C          6.18420        -5.12790        -0.26475
C          7.51107        -5.82009        -0.38757
C          8.79629        -5.01099        -0.49178
C         -7.07021        -6.70600         1.86746
C         -5.84367        -7.28598         1.94199
C         -4.69127        -6.39958         1.57452
C         -3.72209        -8.19502         0.10386
C         -2.51498        -7.40745        -0.42763
C         -1.57670        -8.59474        -0.84598
C         -0.03552        -7.45746        -1.46886
C          1.54617        -7.83654        -0.25911
C          2.56676        -7.34748        -1.27366
C          3.85199        -8.14374        -1.19947
C          5.10845        -7.32578        -1.00607
C          6.15649        -7.84951        -0.01331
C          7.48889        -7.16323        -0.25102
C         -5.58938        -8.62649         2.45643
C         -4.46226        -9.36199         2.24088
C         -3.40272        -9.04353         1.29714
C         -2.15002        -9.60504         1.36488
C         -1.08004        -9.29704         0.42735
C          0.19097        -9.73765         0.69332
C          1.42767        -9.30550         0.03194
C          2.56003       -10.05337        -0.03078
C          3.82695        -9.63452        -0.76477
C          5.10014       -10.09957        -0.09272
C          6.19426        -9.35087         0.08795
O         -5.91985        -6.18041        -0.54825
O         -7.21086         3.01601         2.63818
O         -6.51958         0.50525         1.98385
O         -8.93563        -2.83389        -1.31359
O         -2.97979         4.40918         1.46289
O          3.72486         0.83766        -1.92185
O          3.07101        -8.05650        -2.42990
O          2.85497         7.30640         0.75673
O          5.78951        -1.17460         2.56312
O         -3.70789        -6.27542         2.28560
O          6.30750         5.34824        -1.20601
O          0.79557         7.93827        -2.34044
O          4.43802         1.21446         1.75798
O          6.05236        -4.63526         1.09979
O         -6.07993         3.93784        -0.81138
O          4.40054         4.27485        -2.13953
O          4.18312        -2.67426         1.24076
O         -3.00890         6.33258        -1.80423
O         -2.11615        -3.32737        -2.90240
O          1.53345        -3.70855         0.27247
O         -4.84747        -3.55578        -2.43466
O          6.67757         2.18573         2.69333
O          5.58289        -6.56635        -2.12955
O         -9.41788        -1.58023         1.79087
O          8.19463         0.40127        -0.17460
O          1.49401        -0.29049        -2.80355
O          0.03262        -7.07094        -2.68566
O          2.15948         3.26386        -2.73771
O         -2.38752        -1.02513        -2.85713
O         -0.22360         2.42157        -2.95309
O         -1.49578         9.04968        -2.16978
O          4.03273        -3.97862        -2.26407
O          2.04322         5.82931        -2.62197
O         -2.32693         0.47847         0.72789
O         -7.28780        -0.68304        -1.18383
O          4.51321         3.73632         1.37244
O         -4.10941        -1.71565         0.48470
O         -4.75275        -8.31611        -0.52742
O          7.35707        -1.91508        -0.96699
O          2.16499        -0.96556         0.72472
O         -5.55151         7.25645        -1.30150
O         -0.98196         3.02817         0.58783
O         -1.80705        -9.26137        -1.85941
O         -4.45274         1.85714         1.83696
O         -3.15965         7.79764         1.44035
O         -1.88939        -6.47878         0.48876
O         -0.19326         5.57219         0.34873
O          9.00057        -1.81411         2.90714
O          1.95792        -5.45334        -2.83351
O         -9.48707         1.03918         2.07012
O         -0.42703        -2.14532        -0.16338
O          1.28607        -7.02006         0.64625
O          6.08467         8.14897        -0.99141
O          3.80043       -10.43148        -1.98087
H          3.25591        -9.94149        -2.64045
O         -6.58357        -4.42117         2.46169
H         -7.15236        -4.44246         3.25950
O         -7.15708         4.43771         2.87856
H         -6.19242         4.62468         3.02682
O          4.06005        10.09189        -1.34187
H          4.94007         9.72763        -1.59743
O          2.14488         9.83129         1.75192
H          2.16284         8.85553         1.88383
O          8.11413         4.26388         3.17387
H          7.70785         3.56094         3.73028
O         -3.07635        -4.16733         0.74891
H         -2.83008        -4.79032         1.48027
O          5.64080        -7.39814         1.27633
H          6.29587        -7.61243         1.97253
O          8.88115         4.49045        -0.34354
H          8.56495         5.13601        -1.01073
O          9.88486        -5.71423         0.08951
H          9.69303        -5.85708         1.03884
O         -2.03514        -5.76978        -3.00779
H         -2.27297        -4.96581        -3.53374
O         -7.07081        -4.42726        -1.99054
H         -6.50636        -5.20719        -2.18927
O         -4.88741         5.98127         1.98247
H         -4.13805         6.62790         2.17867
O         -2.30944         1.33782        -2.70767
H         -1.92181         1.09780        -3.57728
H         11.64813        -1.22161         1.32107
H         11.60266         1.13600         1.58848
H         10.40325         3.22173         2.26969
H          9.41444         5.53091         1.40942
H          8.23663         7.70326         1.32298
H          6.60948         9.62964         1.95708
H          4.57967        10.91701         1.50729
H          2.34292        11.19556         0.21959
H         -0.09091        11.11709         0.12704
H         -2.68516        11.26328        -0.48581
H         -5.10422        11.13855         0.00558
H         -7.16928         9.83366         0.13396
H         -8.32323         7.58007         0.53068
H         -9.49341         5.41938         0.36623
H        -10.59403         3.41176         0.06474
H        -11.99803         1.28543        -0.05244
H        -12.12880        -1.14482        -0.17173
H        -10.83413        -3.45282        -0.43315
H         -9.44287        -5.37039         1.65117
H         -7.98022        -7.25322         2.16016
H         -6.36400        -9.04935         3.11596
H         -4.34846       -10.30408         2.80142
H         -1.91017       -10.28335         2.20035
H          0.32007       -10.39959         1.56850
H          2.52798       -11.10830         0.28701
H          5.15039       -11.18375         0.09150
H          7.10777        -9.80982         0.49847
H          8.42188        -7.74716        -0.25855
H          9.03857        -4.87784        -1.58234
H         10.59433        -3.55785         0.95344
