         344
 CSIRO Nanostructure Databank - Neutral Graphene Oxide Data Set
C          1.54451         3.67194        -1.81786
C          0.41147         4.42163        -2.13406
C          1.46800         6.47475        -1.30963
C          0.36865         5.79237        -1.88196
C          1.39187         7.85301        -0.93996
C          0.19587         8.64026        -1.14531
C          1.09301        10.48019         0.28964
C          0.06585         9.89057        -0.64322
C          1.16795        11.99163         0.22321
C         -0.06643        12.75362         0.19739
C          1.17598        14.83609         0.73896
C         -0.09419        14.08883         0.41768
C          1.18788        16.30777         0.39551
C          0.04472        17.02706        -0.07842
C          1.11374        19.10050         0.68252
C          0.02777        18.39271        -0.08166
C          1.16042        20.61988         0.56532
C         -0.06989        21.39461         0.33577
C          1.21391        23.43002        -0.22731
C         -0.02441        22.70456        -0.01583
C          1.21722        24.82625        -0.57498
C          0.01421        25.56229        -0.78572
C          1.26391        27.61401        -1.17911
C          0.03594        26.90571        -1.09185
C          1.29826        29.01475        -1.46387
C          3.85386         3.55861        -0.97722
C          2.67913         4.29598        -1.25864
C          3.80684         6.33677        -0.47623
C          2.66993         5.71902        -1.01215
C          3.88119         7.84241        -0.39967
C          2.52063         8.51030        -0.36324
C          3.63638        10.52293         0.50499
C          2.43474         9.80917         0.12477
C          3.61619        11.95112         0.52549
C          2.37767        12.65095         0.31880
C          3.66469        14.81982         0.55978
C          2.39119        14.14892         0.10203
C          3.66311        16.27295         0.58820
C          2.42445        16.99147         0.52168
C          3.66167        19.09719         0.30124
C          2.45290        18.42088         0.44247
C          3.64873        20.52896        -0.18210
C          2.45411        21.32320         0.28630
C          3.68714        23.40366        -0.28891
C          2.43857        22.74566        -0.12558
C          3.69974        24.80420        -0.51710
C          2.46394        25.50694        -0.69166
C          3.72088        27.61663        -1.01191
C          2.48176        26.91026        -0.96778
C          3.73026        29.02267        -1.27120
C          2.48782        29.69570        -1.51078
C          6.20687         3.43875        -0.31987
C          4.99102         4.17045        -0.44941
C          6.08362         6.18228         0.50564
C          4.98128         5.59051        -0.14583
C          6.00968         7.55586         0.97767
C          4.69939         8.31092         0.80202
C          6.06908        10.50691         0.89250
C          4.83239         9.82205         0.74519
C          6.05119        11.95129         0.86700
C          4.83548        12.65719         0.74610
C          6.02955        14.87451         1.28038
C          4.80966        14.11048         0.81710
C          6.17027        16.19992         0.51034
C          4.87601        16.97933         0.57012
C          6.16537        19.07874         0.39539
C          4.89778        18.37881         0.37878
C          6.18011        20.51978         0.02187
C          4.93391        21.28990         0.00439
C          6.18461        23.42098        -0.11502
C          4.94054        22.67459        -0.14572
C          6.16905        24.83784        -0.28489
C          4.94079        25.51887        -0.53400
C          6.16967        27.64984        -0.74284
C          4.94376        26.92709        -0.76630
C          6.16306        29.05652        -0.99470
C          4.95298        29.72014        -1.27002
C          8.62247         3.42234        -0.15011
C          7.37864         4.05252         0.09229
C          8.61320         6.18477         0.63234
C          7.33077         5.38099         0.81878
C          8.68750         7.56984         1.27377
C          7.34870         8.35566         1.22785
C          8.56388        10.51736         0.56426
C          7.30383         9.79071         0.97810
C          8.52585        11.98482         0.91001
C          7.30334        12.69606         0.98988
C          8.54472        14.83880         1.56178
C          7.29765        14.08837         1.16885
C          8.51401        16.34404         1.35900
C          7.38204        17.00713         0.95690
C          8.48303        19.30708         1.31445
C          7.34387        18.44596         0.76987
C          8.67390        20.63321         0.62415
C          7.47302        21.29541         0.09725
C          8.62137        23.48624         0.29986
C          7.42050        22.76669         0.11302
C          8.61292        24.90893         0.12057
C          7.39628        25.57146        -0.21310
C          8.61300        27.72012        -0.36157
C          7.39529        26.98234        -0.44302
C          8.58988        29.13014        -0.64568
C          7.40427        29.76108        -0.95714
C         11.03447         3.52994        -0.53537
C          9.82063         4.14359        -0.12368
C         11.05262         6.29835         0.28352
C          9.76745         5.55649         0.25438
C         10.98565         7.78119         0.31172
C          9.86973         8.38171         0.77904
C         11.08435        10.59394         0.67958
C          9.83953         9.84715         1.11851
C         11.10154        12.05989         1.02216
C          9.76764        12.73066         0.73200
C         11.06822        14.91899         1.12658
C          9.78137        14.24438         0.92506
C         11.11621        16.28666         1.76254
C          9.78110        17.06068         1.70177
C         11.08734        19.26146         1.30007
C          9.79956        18.55840         1.56443
C         11.09052        20.64525         1.05619
C          9.84718        21.34679         0.76216
C         11.06490        23.49222         0.67661
C          9.86623        22.78857         0.55392
C         11.04248        24.99555         0.85432
C          9.81635        25.66275         0.25634
C         11.06009        27.81610         0.21921
C          9.81068        27.03938         0.01997
C         11.07961        29.29226        -0.14673
C          9.84156        29.97220        -0.69460
C         13.44557         3.61135        -1.07807
C         12.25345         4.21315        -0.62935
C         13.49260         6.43163        -0.50787
C         12.30555         5.62192        -0.17469
C         13.46525         7.84271        -0.31231
C         12.12951         8.56134        -0.30460
C         13.47023        10.70429         0.10939
C         12.20032         9.98533         0.18658
C         13.51604        12.10029         0.36639
C         12.20401        12.84658         0.28364
C         13.49192        14.95979         0.90453
C         12.25681        14.26871         0.83568
C         13.51284        16.37179         1.01150
C         12.30918        17.09374         1.25131
C         13.56121        19.21519         1.06667
C         12.30756        18.50689         1.22937
C         13.56524        20.66596         0.96302
C         12.32496        21.36799         0.92286
C         13.54588        23.49200         0.57768
C         12.31531        22.78688         0.74988
C         13.51144        24.92350         0.38620
C         12.34070        25.65948         0.45194
C         13.53084        27.80907         0.11131
C         12.35012        27.09703         0.24783
C         13.55921        29.20511        -0.28755
C         12.36138        29.88502        -0.50489
C         15.87885         3.70488        -1.53232
C         14.66468         4.32715        -1.13973
C         15.90331         6.46036        -0.92754
C         14.67908         5.74819        -0.85649
C         15.93389         7.95721        -0.79586
C         14.64531         8.57703        -0.33146
C         15.93766        10.66996         0.04288
C         14.67981         9.98944        -0.06616
C         15.95909        12.07086         0.29226
C         14.72852        12.77217         0.46450
C         15.93226        14.94557         0.27882
C         14.79366        14.19846         0.96180
C         15.98704        16.39022         0.72017
C         14.77592        17.08022         0.92914
C         16.06495        19.23290         1.23568
C         14.76385        18.50242         1.01969
C         16.06348        20.61368         0.58530
C         14.77342        21.37592         0.78314
C         16.05591        23.44151         0.30647
C         14.78296        22.77324         0.55849
C         16.05690        24.87445        -0.03564
C         14.76313        25.63507         0.02637
C         16.04984        27.78743        -0.13636
C         14.82787        27.10313         0.40478
C         16.03505        29.13482        -0.53505
C         14.79943        29.83400        -0.59266
C         18.32873         3.80469        -1.97411
C         17.08709         4.41222        -1.56614
C         18.35633         6.52745        -1.13769
C         17.10194         5.80498        -1.21219
C         18.40875         7.82218        -0.56380
C         17.14362         8.43132         0.00692
C         18.38919        10.58970         0.21130
C         17.17966         9.94560         0.03292
C         18.44073        12.02673         0.34304
C         17.21065        12.76622         0.38443
C         18.43649        14.89015         0.48331
C         17.23694        14.19376         0.44886
C         18.45644        16.32892         0.44338
C         17.24031        17.07713         0.64995
C         18.51558        19.18048         0.58239
C         17.29761        18.47656         0.79431
C         18.55845        20.61307         0.60951
C         17.31852        21.39575         1.00268
C         18.53116        23.48023         0.21945
C         17.28147        22.79833         0.43603
C         18.54448        24.90791         0.02016
C         17.32860        25.60878         0.04301
C         18.61322        27.78347        -0.46805
C         17.30813        27.06689         0.01694
C         18.44079        29.08778        -1.12953
C         17.23125        29.75986        -1.04362
C         19.49532         4.51721        -1.99548
C         20.77234         6.59497        -1.44045
C         19.55317         5.88619        -1.54399
C         20.81065         7.86246        -0.87279
C         19.63244         8.47491        -0.39120
C         20.89623        10.55592         0.37775
C         19.63250         9.75018         0.44055
C         20.88988        11.91709         0.42791
C         19.68046        12.68425         0.44127
C         20.86485        14.88343        -0.02483
C         19.74842        14.17002         0.70115
C         20.83402        16.22474        -0.17140
C         19.67041        17.01407         0.21113
C         20.90040        19.16732        -0.00278
C         19.70387        18.44157         0.25117
C         20.91713        20.54183         0.01577
C         19.74165        21.29485         0.30731
C         20.96106        23.46410         0.02284
C         19.75437        22.75847         0.21238
C         20.97212        24.82678        -0.26264
C         19.78387        25.57477        -0.30479
C         20.76850        27.48370        -1.58972
C         19.76673        26.93875        -0.79672
C         20.66740        28.80685        -2.09895
C         19.54562        29.58143        -1.89691
O          9.70907        17.92100         2.90356
O         15.27385        25.25643        -1.28053
O         11.92571        12.92105        -1.08213
O          7.01015        20.72711        -1.20453
O          6.50730         7.84771         2.32376
O         11.98951         5.76104         1.28405
O          9.65303        13.66539        -0.40013
O          2.01985        21.13785         1.66806
O         18.25166        27.72732         0.93292
O         10.95304        28.86269         1.25387
O          0.63608        10.16480         1.65774
H          0.76554         9.20127         1.79040
O          0.81462        18.83465         2.09757
H          1.35906        19.47542         2.61090
O          6.38782        15.83899        -0.88120
H          6.49162        16.66517        -1.39811
O         15.63132        14.97041        -1.14414
H         16.33154        15.48500        -1.59678
O         16.16295        20.37637        -0.84475
H         16.09714        21.24125        -1.30264
O          8.69612        10.42627        -0.89420
H          8.11839        11.10774        -1.29950
O          5.85555        15.22683         2.69431
H          5.40131        14.47835         3.13610
O         16.15261        19.38130         2.68007
H         16.09666        18.48700         3.07651
O         10.08949        30.36725        -2.05897
H          9.98576        29.58271        -2.63544
O          9.77411         9.95224         2.57231
H          9.56545         9.05235         2.93693
O          4.58677         8.28941        -1.59486
H          4.06932         7.99837        -2.37469
O         11.78247         8.65076        -1.73375
H         11.11395         9.36430        -1.83415
O         20.05926        14.29494         2.14087
H         20.04204        15.25296         2.35303
O          8.69331        14.63550         3.00177
H          7.87294        14.99091         3.41523
O          2.28312        14.37696        -1.33258
H          3.08023        13.99851        -1.75902
O         14.97359        27.08424         1.86993
H         15.08322        28.01101         2.17109
O          3.47254        20.43342        -1.64100
H          4.33671        20.18003        -2.03114
O         17.32826        21.56974         2.44115
H         18.12313        22.09246         2.67413
O         16.14455         8.48733        -2.14584
H         15.33763         8.30447        -2.67210
O         15.13875        14.12877         2.37904
H         14.37509        13.74104         2.85772
O         17.01423         7.97421         1.37303
H         17.84133         8.25063         1.83954
O         11.42395        16.06289         3.16922
H         11.05997        16.83577         3.66126
O          7.28539         5.06590         2.25731
H          8.04702         4.47621         2.44517
O          1.36032        14.76286         2.18375
H          0.66764        15.31271         2.60620
O          3.90582         7.99593         1.97558
H          4.51203         8.04900         2.74817
O         10.92164        25.20054         2.30818
H         10.98877        26.16566         2.47492
O          7.97540        19.72761         2.62444
H          8.31028        19.06600         3.27709
O         19.52800         9.26577         1.84094
H         19.57154        10.05621         2.42171
O          8.95509         7.33695         2.69071
H          8.13810         6.90638         3.04653
O         11.34892        12.18896         2.44224
H         10.82576        11.48480         2.89831
H          1.56463         2.58985        -2.01058
H         -0.46426         3.92640        -2.57646
H         -0.55074         6.34047        -2.12651
H         -0.62147         8.22363        -1.75087
H         -0.86357        10.44720        -0.82951
H         -1.01571        12.21252         0.07437
H         -1.06112        14.60559         0.51484
H         -0.80610        16.46548        -0.49264
H         -0.83179        18.94631        -0.48526
H         -1.04136        20.88933         0.43726
H         -0.97560        23.23476        -0.16093
H         -0.95725        25.05557        -0.71394
H         -0.90679        27.44705        -1.25784
H          0.34905        29.54263        -1.63704
H          3.87755         2.48222        -1.20365
H          2.50324        30.77496        -1.72125
H          6.24768         2.41392        -0.72033
H          4.96181        30.80267        -1.46531
H          8.62493         2.39021        -0.53298
H          7.40930        30.83855        -1.17877
H         11.00120         2.46629        -0.81642
H          9.67365        30.92082        -0.12100
H         13.43336         2.54972        -1.36747
H         12.36585        30.86130        -1.01103
H         15.86838         2.63781        -1.80120
H         14.79104        30.88200        -0.92579
H         18.32088         2.74848        -2.28171
H         17.13979        30.75837        -1.49752
H         20.42933         4.03400        -2.31926
H         21.70464         6.11799        -1.77631
H         21.77832         8.37409        -0.77532
H         21.85613        10.02276         0.43545
H         21.85063        12.44937         0.48684
H         21.75472        14.32027        -0.34101
H         21.69250        16.73339        -0.63262
H         21.82992        18.63044        -0.23369
H         21.85760        21.05811        -0.21603
H         21.92198        22.93496         0.05960
H         21.93374        25.32076        -0.46018
H         21.65718        26.88871        -1.84354
H         21.49380        29.19873        -2.70824
H         19.47057        30.57917        -2.35284
