         294
 CSIRO Nanostructure Databank - Neutral Graphene Oxide Data Set
C          1.07010         1.99195        -0.10777
C          1.03008         3.36950        -0.05330
C          2.26749         1.26645         0.00473
C          2.29170         4.18559         0.00331
C          1.08688         6.40459        -0.30773
C          1.27639         7.63501        -0.80888
C          2.05193         5.63580         0.57075
C          2.54791         8.39398        -0.66534
C          1.35208        10.68013        -1.05544
C          1.38696        12.01896        -1.11366
C          2.60076         9.89951        -0.85782
C          2.50686        12.88714        -0.58228
C          1.99303        15.04672        -2.00545
C          2.33304        16.30900        -2.31805
C          2.98565        13.95847        -1.63639
C          3.65953        16.93639        -1.94032
C          3.96928        18.25540        -2.64418
C          3.45480         1.88105         0.57260
C          3.41409         3.45054         0.74741
C          4.75917         1.25591         0.49808
C          4.73308         4.12728         0.82310
C          3.39829         6.36233         0.74121
C          3.60695         7.74548         0.16641
C          4.68982         5.61290         0.90570
C          4.71407         8.56370         0.82433
C          3.83713        10.64416        -0.42049
C          3.75940        12.10551        -0.13485
C          5.06533         9.85140         0.04163
C          4.82771        12.78458         0.36945
C          4.36179        14.55867        -1.26899
C          4.76213        15.87754        -1.79714
C          4.82933        14.30441         0.18501
C          6.00532        16.47293        -1.25516
C          5.03296        19.07295        -2.44899
C          6.28974        18.63833        -1.81809
C          5.97262         1.97620         0.58244
C          5.91453         3.43090         0.76765
C          7.20217         1.33250         0.37686
C          7.15164         4.19279         0.43406
C          5.95216         6.38612         0.77055
C          5.99361         7.74435         0.84075
C          7.23205         5.61347         0.93897
C          7.26851         8.47588         0.95413
C          6.09771        10.62052         0.85145
C          5.97864        12.10550         1.09841
C          7.22263         9.92576         1.18568
C          7.32609        12.77227         1.00190
C          6.12864        15.01134         0.70683
C          6.46931        16.32437        -0.00037
C          7.42692        14.20604         0.56364
C          7.52574        17.20691         0.65997
C          7.15484        19.17150        -0.92862
C          8.25611        18.28823        -0.31416
C          8.53376         2.03189         0.43012
C          8.40224         3.49173         0.02630
C          9.67063         1.34751        -0.37439
C          9.69681         4.27634        -0.25514
C          8.41783         6.38829         0.33178
C          8.45406         7.80028         0.85300
C          9.74216         5.62556         0.53076
C          9.79101         8.44812         1.11587
C          8.51505        10.59099         1.62640
C          8.49799        12.07686         1.33914
C          9.71502         9.95554         0.85971
C          9.71773        12.74662         1.44646
C          8.51556        14.96689         1.28468
C          8.55312        16.32228         1.34548
C          9.75508        14.22126         1.68977
C          9.81019        17.04246         1.69726
C          9.18563        19.16870         0.54325
C          9.76947        18.54644         1.76395
C         10.98876         2.10257        -0.22675
C         10.96116         3.47602        -0.06451
C         12.23477         1.40991        -0.41169
C         12.22325         4.25459        -0.35660
C         10.95541         6.46274         0.17874
C         10.97338         7.80649         0.41242
C         12.27573         5.71258         0.18522
C         12.24572         8.55935         0.42773
C         11.05126        10.62524         1.12501
C         11.01881        12.02452         1.70273
C         12.24250         9.97774         0.83872
C         12.24967        12.84434         1.35008
C         10.87806        14.84580         0.82442
C         10.98373        16.33428         1.08930
C         12.21151        14.17709         1.06446
C         12.03610        17.03929         0.27619
C         10.72813        19.23969         0.83437
C         11.99180        18.54363         0.44265
C         13.48122         2.05987        -0.33383
C         13.46025         3.50294         0.13859
C         14.72906         1.42207        -0.45247
C         14.69882         4.25482        -0.30924
C         13.38016         6.54360        -0.49789
C         13.43064         7.91040         0.17636
C         14.69588         5.74292        -0.52530
C         14.72446         8.60349         0.33287
C         13.50824        10.69419         0.87218
C         13.53093        12.09449         1.34759
C         14.71996        10.08957         0.46803
C         14.81004        12.90004         1.23825
C         13.41859        14.99909         0.88126
C         13.35294        16.36589         0.57491
C         14.68882        14.37853         1.10326
C         14.57780        17.12536         0.15209
C         13.16041        19.24536         0.40061
C         14.48133        18.63297         0.33006
C         15.98586         2.09129        -0.26530
C         16.00044         3.58177         0.06834
C         17.19889         1.43047        -0.33956
C         17.19112         4.27502        -0.64569
C         15.99993         6.43760        -0.35063
C         15.98951         7.88100         0.01339
C         17.18391         5.77021        -0.36774
C         17.15315         8.67654        -0.53663
C         15.90336        10.82644         0.21153
C         15.95257        12.25488         0.50827
C         17.23764        10.07894         0.11744
C         17.27534        12.98953         0.31308
C         15.84676        15.20902         1.15895
C         15.81658        16.52541         0.74326
C         17.12357        14.74577         1.80869
C         17.05097        17.33552         0.81964
C         15.61154        19.39324         0.39240
C         16.96127        18.79975         0.57113
C         18.49505         2.12407        -0.17084
C         18.49197         3.61637        -0.24705
C         19.79369         1.42962        -0.37015
C         19.70419         4.35268        -0.71210
C         18.47804         6.49072        -0.00240
C         18.46071         7.93939        -0.39272
C         19.74611         5.80314        -0.48433
C         19.74319         8.70975        -0.24518
C         18.38118        10.82547        -0.56800
C         18.46760        12.29029        -0.34651
C         19.62942        10.03517        -1.01197
C         19.76816        12.97091        -0.53395
C         18.34698        15.37422         1.19855
C         18.34201        16.59937         0.62282
C         19.99754        14.19563        -0.00360
C         19.30196        17.27705        -0.36650
C         18.21804        19.47748         0.21856
C         19.38941        18.77554        -0.03949
C         20.94238         2.09675        -0.59989
C         20.99073         3.56010        -0.86923
C         22.22066         4.34876        -0.75906
C         20.94440         6.47598        -0.66374
C         20.98813         7.93965        -0.65768
C         22.17521         5.70871        -0.77778
C         22.10397         8.68047        -0.92393
C         20.92153        10.84041        -1.02934
C         20.81871        12.33005        -1.42364
C         22.07972        10.12950        -1.00583
C         22.13938        13.08599        -1.30915
C         20.98186        15.11540        -0.62165
C         20.68920        16.60826        -0.69529
C         22.24926        14.36550        -0.90562
C         21.86281        17.49163        -0.81395
C         20.60856        19.47565        -0.17065
C         21.81134        18.83470        -0.53765
O         14.42496        12.30939         2.50447
O         18.56933         3.01148         1.06974
O          3.91746         6.16382         2.08769
O         15.64397         8.04813         1.42787
O          7.41689         3.87709        -0.97864
O         20.16804         3.93307        -2.03194
O         14.68869         4.79414        -1.65721
O          3.59299        10.34450        -1.84639
O         16.30008        13.16440        -0.66319
O         17.14135        14.11084         2.86290
O         19.42798        14.50873         1.22338
O         17.08735        18.24853         1.98501
O         20.50979        15.73042        -1.87872
O          3.09077         2.62250         1.83240
O         17.99968        11.71868        -1.65043
O          5.14269        14.65345        -2.52920
O         10.90392        16.53878         2.52380
O          3.82133        15.00967         0.92563
O          3.68786         7.69860        -1.28901
O          6.59701        17.31365        -2.21398
O          3.49585        17.33869        -0.53991
H          3.47817        16.51111         0.03258
O          5.92524        15.19067         2.12311
H          4.93237        15.33661         2.17699
O          8.17281         6.52977        -1.09292
H          7.44719         7.18090        -1.22036
O         11.78479        16.77659        -1.14741
H         12.61510        17.02334        -1.62277
O         16.11886         3.75424         1.49973
H         17.00557         3.39073         1.76501
O          8.96063         2.09186         1.82835
H          8.89480         1.19120         2.20947
O         11.06406        11.85611         3.16432
H         10.24587        11.34081         3.41045
O          7.76729        14.10682        -0.84551
H          8.75714        14.15652        -0.92389
O         19.40089         9.65271        -2.40170
H         19.62295        10.43534        -2.95841
O          5.71626        12.32574         2.53006
H          5.67159        13.30993         2.65795
O         16.84632         8.84357        -1.94612
H         17.67245         9.16762        -2.39487
O          9.31857         1.31705        -1.76155
H          9.26253         2.24439        -2.08127
O         13.02121         6.83418        -1.86087
H         13.08349         5.97513        -2.34778
O          4.31417         8.91300         2.15579
H          4.13633         8.07465         2.64186
O         17.60448         9.93369         1.50482
H         16.89896         9.39678         1.94257
O         17.12757         4.04154        -2.06435
H         16.26842         4.40631        -2.39168
O         19.92915         9.00164         1.16961
H         19.70714         8.17998         1.66771
O         13.43282         3.40016         1.57777
H         14.36703         3.41572         1.90259
O          1.43188         5.51889         1.85431
H          2.14771         5.43080         2.52501
O          9.93523         5.33083         1.94055
H          9.10847         4.92532         2.30763
O         18.54962         6.48623         1.48294
H         17.66972         6.76931         1.82078
O          9.02542        17.59328        -1.28411
H          8.39966        17.23877        -1.96022
O          9.69664         4.55044        -1.68408
H          8.87966         5.07794        -1.88053
O          2.76389         4.40500        -1.35243
H          2.64212         3.57901        -1.86566
O         20.39639        12.35188        -2.81470
H         19.41210        12.43017        -2.80990
O          9.54034        19.10098         3.04024
H          8.70276        18.72889         3.38611
O          7.39330         5.46069         2.38230
H          7.22585         6.32963         2.80626
O          8.72342        10.44760         3.05020
H          9.00199         9.51351         3.22291
O         14.64549        16.92752        -1.32824
H         14.99216        16.02264        -1.48949
O         12.29540         4.27461        -1.80496
H         11.37748         4.43544        -2.14154
O         12.63867         5.71149         1.58111
H         11.94306         5.21957         2.07481
O          9.96760        14.34401         3.10448
H         10.67251        13.71306         3.38650
O          5.78817         9.41014        -1.13305
H          5.14290         9.45258        -1.88615
O         10.49091        14.56773        -0.54720
H         10.88338        15.28655        -1.11321
O          6.85921        17.98567         1.68267
H          6.30241        17.34928         2.18748
O          9.41580        10.15180        -0.54230
H         10.11169         9.71315        -1.07625
O         18.54811        17.26238        -1.60738
H         18.90839        16.52770        -2.16072
O          3.13071        13.17979        -2.84543
H          3.87225        13.58379        -3.35605
O          1.85757        13.47211         0.55093
H          2.47746        14.15490         0.94984
O         10.06604         8.22010         2.53872
H         10.23210         7.25002         2.64118
H          0.14267         1.44417        -0.33326
H          0.07557         3.88767        -0.21464
H          2.30797         0.21341        -0.30674
H          0.11177         5.92214        -0.47311
H          0.46825         8.09570        -1.39661
H          0.43416        10.13892        -1.33005
H          0.46107        12.56188        -1.35887
H          0.96563        14.70851        -2.21772
H          1.55234        16.99559        -2.68585
H          3.11135        18.68852        -3.18744
H          4.79561         0.23040         0.10053
H          4.98838        20.09562        -2.86016
H          7.19971         0.24111         0.23104
H          6.99024        20.17696        -0.51578
H          9.78797         0.28669        -0.03524
H          8.76553        20.17437         0.71854
H         12.20080         0.33215        -0.63703
H         10.95023        20.27782         1.14075
H         14.75559         0.34630        -0.69218
H         13.13452        20.34038         0.52274
H         17.21919         0.35518        -0.57640
H         15.52373        20.48967         0.45704
H         19.81044         0.33518        -0.25150
H         18.25414        20.57816         0.26807
H         21.89083         1.54070        -0.66223
H         23.18513         3.82707        -0.66999
H         23.12507         6.26099        -0.74854
H         23.06681         8.19332        -1.13580
H         23.05118        10.63259        -1.11941
H         23.05222        12.55651        -1.62106
H         23.22697        14.87102        -0.88713
H         22.80662        17.03592        -1.14527
H         20.61763        20.55774         0.02544
H         22.72556        19.43787        -0.62845
