         480
 CSIRO Nanostructure Databank - Neutral Graphene Oxide Data Set
C         38.42386        50.68356         1.72173
C         37.73440        51.04885         0.59766
C         38.88124        53.20537         0.52508
C         37.93718        52.31156        -0.01381
C         40.77690        49.66749         3.22562
C         40.73602        50.93751         2.68073
C         39.38675        51.60848         2.41513
C         40.70015        53.78310         2.20014
C         39.57437        52.91442         1.68495
C         40.75932        55.13150         1.54235
C         43.19914        49.50996         2.93792
C         41.99567        48.96155         3.35919
C         43.20556        50.86981         2.44487
C         41.95716        51.60364         2.33570
C         43.13782        53.57706         1.44392
C         41.96593        52.96809         1.96983
C         43.14647        54.91180         1.00097
C         41.89409        55.64381         1.01951
C         45.60660        46.62120         3.14725
C         44.43549        47.35853         3.20848
C         45.67512        49.34291         2.56772
C         44.44072        48.73342         2.90604
C         45.69318        50.80861         2.34837
C         44.40500        51.48406         2.10068
C         45.64826        53.44895         0.95928
C         44.36630        52.76178         1.37487
C         45.61507        54.87242         0.58233
C         44.37318        55.55704         0.55592
C         45.55069        57.51784        -0.29720
C         44.38068        56.90909         0.13679
C         47.87292        44.87532         2.44781
C         48.02773        46.33662         2.66245
C         46.83365        47.21320         2.79839
C         48.17570        49.29607         2.20683
C         46.88528        48.60743         2.53861
C         48.17084        50.66128         1.64321
C         46.98891        51.48051         1.92850
C         48.21299        53.49623         0.84197
C         46.95344        52.89080         1.41415
C         48.07364        54.75909         0.07912
C         46.81913        55.48908         0.13769
C         48.03853        57.50963        -0.78739
C         46.76559        56.81946        -0.35174
C         47.82989        58.63794        -1.75280
C         50.23968        44.57952         1.82325
C         48.92216        44.06834         2.14875
C         50.26337        46.03576         1.47824
C         49.30995        46.95263         2.17087
C         50.46308        48.99124         1.04197
C         49.41782        48.44250         1.93864
C         50.45357        50.35161         0.68430
C         49.31946        51.22494         1.02661
C         50.52380        53.14450        -0.06828
C         49.36612        52.59632         0.65391
C         50.42696        54.49512        -0.73208
C         49.15967        55.27447        -0.64514
C         50.21260        57.06795        -2.01540
C         49.11792        56.55174        -1.24989
C         50.11777        58.36628        -2.54545
C         48.86607        59.07363        -2.50643
C         52.33830        41.55890         1.15835
C         51.30573        42.32624         1.59271
C         52.64573        44.39389         1.22490
C         51.33323        43.77492         1.55065
C         52.70006        45.87183         0.83346
C         51.43889        46.65653         0.82416
C         52.60307        48.58403        -0.13496
C         51.55066        48.12815         0.61654
C         52.52170        49.94988        -0.75897
C         51.52309        50.87237        -0.11762
C         52.65525        52.70484        -1.30263
C         51.57766        52.21115        -0.51648
C         52.55152        53.97161        -2.02652
C         51.25497        54.77262        -1.98057
C         52.57286        56.82311        -2.73439
C         51.42531        56.26977        -2.22326
C         52.58903        58.22575        -3.22893
C         51.28656        59.01738        -3.16738
C         52.59172        61.10267        -3.08534
C         51.38964        60.48104        -3.06309
C         54.91741        39.86766         0.85632
C         54.89058        41.28998         0.48899
C         53.58651        42.13581         0.62345
C         54.96683        44.20263         0.38404
C         53.76153        43.58467         0.73599
C         55.01338        45.62677         0.09223
C         53.84495        46.37159         0.09343
C         55.06166        48.46319        -0.51476
C         53.73118        47.68921        -0.63502
C         54.99453        49.73705        -1.32988
C         53.85658        50.61015        -1.03904
C         55.10147        52.57754        -1.90522
C         53.85994        51.93534        -1.46133
C         55.12034        53.95614        -2.19802
C         53.85254        54.61673        -2.50672
C         55.14952        56.77585        -3.13499
C         53.84290        56.06046        -2.91408
C         55.20613        58.30254        -3.22409
C         53.84730        58.98949        -3.18653
C         55.10269        61.09460        -2.94906
C         53.83614        60.36447        -3.13600
C         55.20673        62.46932        -3.22187
C         57.37250        39.88434         0.93962
C         56.09098        39.21337         1.03231
C         57.37564        41.31126         0.77031
C         56.16619        42.02587         0.53698
C         57.43572        44.11681         0.25317
C         56.18222        43.42261         0.31510
C         57.46663        45.52826        -0.10782
C         56.27596        46.25152        -0.27941
C         57.51327        48.23425        -1.03266
C         56.30403        47.61755        -0.70853
C         57.58103        49.50503        -1.87344
C         56.29222        50.36002        -1.86800
C         57.56276        52.55070        -1.94001
C         56.32179        51.82511        -1.94575
C         57.60451        53.91017        -2.15535
C         56.39141        54.52833        -2.80200
C         57.47965        56.79737        -2.02540
C         56.52175        56.08115        -2.97849
C         57.38801        58.20197        -1.90444
C         56.07942        58.92560        -2.12774
C         57.42074        61.10451        -2.16143
C         56.21469        60.41019        -2.41938
C         57.52836        62.49486        -2.49849
C         56.41037        63.14936        -3.01624
C         59.80682        37.03750         0.80885
C         58.64413        37.72605         0.86023
C         59.83969        39.88602         1.02579
C         58.59055        39.17140         0.98667
C         59.82490        41.30514         1.02472
C         58.61917        42.02657         0.81124
C         59.82044        44.28017         0.89310
C         58.61779        43.43533         0.56306
C         59.92711        45.54303         0.05376
C         58.71867        46.20430        -0.28559
C         59.97944        48.27213        -0.76572
C         58.73944        47.54826        -0.77344
C         60.00220        49.68554        -0.96526
C         58.84506        50.33334        -1.61650
C         59.95089        52.59597        -1.10964
C         58.84104        51.82785        -1.71777
C         59.91927        53.99174        -1.14261
C         58.89499        54.69273        -2.02007
C         59.71344        56.85347        -0.98595
C         58.65397        56.13223        -1.61308
C         59.63554        58.26144        -0.92396
C         58.50187        58.95056        -1.43340
C         59.71309        61.10684        -1.22296
C         58.52428        60.38616        -1.57716
C         59.75997        62.54468        -1.39367
C         58.91655        63.12080        -2.50961
C         60.05961        65.44832        -2.60840
C         59.01924        64.60718        -2.82447
C         62.32907        35.80022        -0.16558
C         62.33308        37.08683         0.35605
C         61.13796        37.68049         1.08500
C         62.33532        39.87153         1.05171
C         61.08613        39.18454         0.96342
C         62.34043        41.24678         1.41482
C         61.14778        41.99413         0.81506
C         62.39166        44.16278         0.58988
C         61.12543        43.49994         0.98392
C         62.40383        45.58138         0.18934
C         61.15476        46.22096        -0.08456
C         62.38848        48.34918        -0.21050
C         61.17922        47.61219        -0.40560
C         62.32017        49.76931        -0.16463
C         61.10843        50.44472        -0.56240
C         62.07343        52.63475         0.09827
C         61.04515        51.89578        -0.53106
C         62.06381        54.04691         0.09244
C         60.96004        54.73860        -0.51371
C         62.00623        56.90603         0.03168
C         60.89181        56.16544        -0.48104
C         62.00983        58.33517        -0.02413
C         60.68628        59.04042        -0.18027
C         62.04509        61.20140        -0.48289
C         60.79410        60.45716        -0.64418
C         61.99566        62.66023        -0.35644
C         60.74503        63.24088        -0.70986
C         62.46512        65.37062        -1.62045
C         61.10573        65.19422        -1.61834
C         63.15065        66.12652        -2.67206
C         64.71936        35.91583        -0.64583
C         63.51526        35.21729        -0.64912
C         64.74295        37.27474        -0.20709
C         63.54684        37.83539         0.33095
C         64.79734        39.90192         0.86284
C         63.57204        39.17953         0.81753
C         64.81081        41.17955         1.46554
C         63.59029        41.74551         1.92320
C         64.89086        44.11024         0.70896
C         63.66412        43.45221         0.16521
C         64.84471        45.54544         0.58541
C         63.61782        46.25219         0.21698
C         64.77855        48.45022         0.38901
C         63.62205        47.69024         0.07821
C         64.62836        49.82316         0.68982
C         63.41949        50.48090         0.37005
C         64.35892        52.70071         1.20890
C         63.19982        51.90665         0.70976
C         64.30251        54.16663         1.17604
C         63.18666        54.79951         0.64220
C         64.27579        56.99163         0.99895
C         63.15421        56.24095         0.53872
C         64.30089        58.41071         0.86102
C         63.16171        59.05041         0.29957
C         64.34877        61.30607         0.57332
C         63.27398        60.48963        -0.00711
C         64.33828        62.71220         0.40701
C         63.18315        63.39598        -0.14674
C         64.54806        65.43292        -0.31573
C         63.35591        64.77036        -0.59220
C         64.72108        66.81200        -0.91054
C         64.28720        66.77768        -2.36680
C         67.24353        33.36349        -1.92153
C         66.06069        33.87911        -1.49497
C         67.24649        36.08614        -1.14737
C         66.00700        35.23346        -0.94280
C         67.08107        37.59666        -1.14085
C         65.94336        38.06784        -0.26796
C         67.26993        40.06716         0.44508
C         66.00247        39.32744         0.32237
C         67.33022        41.28534         1.08900
C         66.09075        41.97639         1.63180
C         67.28057        44.16699         1.12594
C         66.04752        43.42743         1.08266
C         67.23515        45.58436         0.97426
C         66.00646        46.27523         0.80449
C         67.12675        48.46975         1.48836
C         66.08839        47.75622         0.59844
C         67.07004        49.96461         1.23383
C         65.71550        50.58781         1.46798
C         66.87211        52.87001         1.41874
C         65.70010        52.04778         0.96802
C         66.79581        54.19884         1.72723
C         65.40459        54.86859         1.94527
C         66.28245        57.19487         2.28898
C         65.34622        56.36261         1.69834
C         66.49968        58.55557         1.94737
C         65.42217        59.19602         1.29147
C         66.56968        61.36279         1.63333
C         65.44429        60.62861         1.15690
C         66.53238        62.78843         1.51739
C         65.47174        63.46102         0.86858
C         66.68319        65.64468         0.90893
C         65.56701        64.87558         0.53741
C         66.95884        66.94563         0.31222
C         66.08369        67.42260        -0.69644
C         67.54975        69.29671        -1.10178
C         66.39099        68.59294        -1.39716
C         69.86786        32.12314        -2.00122
C         69.63149        33.40295        -2.54053
C         68.43766        34.15747        -2.10800
C         69.46560        36.47199        -2.23050
C         68.38866        35.53369        -1.90699
C         69.55690        37.71922        -1.53007
C         68.40322        38.26027        -0.83510
C         69.79155        40.05287         0.10043
C         68.46798        39.42801        -0.10586
C         69.87817        41.40255         0.79769
C         68.63046        42.03163         1.40459
C         69.73071        44.28994         1.00546
C         68.54668        43.52622         1.14365
C         69.66354        45.72781         0.93909
C         68.42827        46.35673         0.91659
C         69.45151        48.61543         0.28867
C         68.21000        47.81703         0.62774
C         69.37215        50.11698         0.32544
C         68.13369        50.73536         0.86694
C         69.33498        53.03225         0.94628
C         68.20230        52.15674         1.42279
C         69.28805        54.36963         1.30218
C         68.06389        54.92063         1.86078
C         69.18948        57.13697         2.12849
C         68.15823        56.19010         2.40494
C         69.00973        58.53595         2.32275
C         67.75378        59.23740         2.21317
C         68.93056        61.42282         2.40652
C         67.73780        60.66304         2.10297
C         68.81521        62.87903         2.64045
C         67.57892        63.58816         2.17613
C         68.92543        65.80445         2.08926
C         67.65703        65.07821         1.85754
C         68.81235        67.31063         2.00207
C         68.10004        67.72045         0.70274
C         69.73886        70.30765         1.40377
C         68.35690        68.90515        -0.01849
C         69.84886        71.70254         1.49111
C         71.83585        31.84547        -3.38804
C         70.96054        31.35923        -2.41233
C         71.63108        33.11362        -3.93555
C         70.54476        33.87891        -3.49855
C         71.58687        37.01417        -3.35701
C         70.46515        36.18689        -3.18612
C         71.75569        38.12432        -2.54379
C         70.75040        38.49889        -1.62051
C         72.09438        40.38897        -0.69936
C         70.90623        39.65692        -0.77431
C         72.17674        41.63231        -0.05841
C         71.05879        42.24835         0.53340
C         72.19365        44.46088         0.71137
C         71.00814        43.64870         0.79166
C         72.17417        45.81854         0.80841
C         70.90522        46.54678         0.93132
C         71.97259        48.85135         0.18765
C         70.80305        48.02362         0.59223
C         71.89318        50.18809         0.04247
C         70.62210        50.94703         0.14355
C         71.78235        53.28216         0.48833
C         70.57052        52.44513         0.39390
C         71.70428        54.59576         0.81673
C         70.46093        55.22673         1.21152
C         71.45523        57.52671         1.21134
C         70.39859        56.58910         1.55163
C         71.39093        58.81658         1.59833
C         70.30434        59.30202         2.53132
C         71.36533        61.58553         2.65992
C         70.16427        60.80631         2.53909
C         71.35830        62.94795         2.66838
C         70.09969        63.68904         2.79089
C         71.23432        65.91463         2.84949
C         70.07056        65.16148         2.54294
C         71.21626        67.31306         2.77871
C         70.10470        68.01744         2.34376
C         70.61730        70.08325         3.64427
C         70.12673        69.47401         2.47052
C         70.68365        71.47074         3.75256
C         70.30136        72.28181         2.67701
O         53.04749        45.42507         2.19310
O         63.09785        60.75130        -1.45285
O         70.41691        51.87394        -0.97821
O         67.17476        47.85451        -0.49256
O         70.88928        47.59224         1.99286
O         67.12789        56.62346         3.25545
O         67.04712        64.57182         3.11642
O         70.33200        35.13145        -4.10427
O         51.13659        54.39919         0.52622
O         60.56813        64.60529        -0.45365
O         63.42466        52.10854         2.18155
O         50.32042        46.15280        -0.00383
O         53.00233        53.81770        -3.42189
O         47.75815        53.75317         2.24742
O         61.98122        44.04682         2.01324
O         44.94438        52.59062        -0.00242
O         69.43572        69.77588         0.15640
O         67.00246        35.45124         0.13574
O         55.30575        49.71188        -2.74208
O         49.25919        49.15864         3.19709
O         69.28967        63.29078         3.95362
O         51.76020        58.43300        -4.42772
O         70.20139        40.16763         1.52456
O         49.15139        46.62445         3.57557
O         54.03272        41.58559        -0.65959
O         69.24535        49.34224        -0.93845
O         59.25548        51.01239        -2.87027
O         54.41797        56.22228        -4.27383
O         63.73370        42.66331        -0.76345
O         46.55786        51.47951         3.34561
O         60.17453        59.13027         1.22171
H         60.08398        58.21049         1.55275
O         61.40817        37.41619         2.51522
H         60.69482        37.84843         3.03131
O         66.71618        37.98706        -2.50384
H         67.48716        37.80651        -3.08324
O         65.11833        54.64082         3.35911
H         65.77779        55.16991         3.86396
O         67.10691        48.22142         2.88137
H         66.48696        48.86989         3.29058
O         40.54455        54.01554         3.62552
H         40.07806        53.23444         4.01312
O         65.79309        51.98926        -0.48887
H         66.64207        51.55779        -0.73218
O         65.42082        50.51147         2.88130
H         64.55259        50.97746         3.01548
O         53.51544        47.41618        -2.04521
H         52.73682        46.82617        -2.12862
O         51.99126        49.70444        -2.12310
H         52.64442        49.11406        -2.57332
O         38.82241        51.89423         3.75341
H         37.93158        52.28098         3.61442
O         50.43221        54.29046        -3.07248
H         51.02470        54.19194        -3.85266
O         68.53890        51.90753         2.84237
H         67.74729        51.50586         3.26516
O         59.49155        54.77849        -3.35371
H         58.87228        55.32469        -3.90067
O         59.54794        62.55147        -3.72120
H         59.44563        61.57546        -3.67999
O         67.90227        67.71597         3.08676
H         67.27544        66.97870         3.25474
O         55.32499        58.76241        -0.88443
H         55.81332        59.22729        -0.17232
O         68.83776        41.92262         2.85901
H         69.25496        41.03946         3.00364
O         55.81725        58.62739        -4.48591
H         55.40224        58.05347        -5.16531
O         66.23071        42.17330         3.07839
H         67.20190        42.24220         3.28983
O         48.58700        58.12554         0.44647
H         48.78440        57.39458         1.07180
O         55.14484        48.93191         0.86173
H         55.15787        48.14942         1.45423
O         63.65731        42.69754         2.86754
H         64.59232        42.76927         3.18941
O         70.75619        58.94618         3.88711
H         70.09733        59.30311         4.51994
O         56.32405        53.97912        -4.17381
H         55.38149        54.00027        -4.45562
O         61.30745        41.86908        -0.64875
H         61.52012        40.93496        -0.86190
O         63.79495        67.71485        -0.21903
H         62.90555        67.30189        -0.25938
O         57.72042        48.97711        -3.21381
H         58.12303        49.69033        -3.76136
O         59.53779        44.77634         2.24162
H         60.41608        44.92263         2.66829
O         57.21030        56.27229        -4.24543
H         56.89887        55.53784        -4.83418
H         38.24694        49.69769         2.17582
H         37.01379        50.34868         0.15011
H         39.06447        54.16434         0.01587
H         37.37133        52.58423        -0.91385
H         39.84510        49.16948         3.52719
H         39.85000        55.74997         1.57899
H         41.95435        47.94109         3.76241
H         41.86358        56.65935         0.60208
H         45.56472        45.55249         3.39307
H         43.50544        46.84964         3.49146
H         45.50285        58.56952        -0.60809
H         43.45813        57.50256         0.13933
H         46.88842        44.41415         2.60650
H         46.87156        59.17239        -1.78696
H         48.75359        42.98277         2.10270
H         48.73838        59.95034        -3.15794
H         52.22976        40.46516         1.15362
H         50.39340        41.82822         1.95036
H         52.63176        62.19449        -2.96816
H         50.47672        61.06566        -2.88046
H         53.96781        39.31693         0.90824
H         54.35552        63.01577        -3.64955
H         56.06858        38.14041         1.26812
H         56.46516        64.21369        -3.28287
H         59.76943        35.94376         0.70066
H         57.70105        37.17652         0.72763
H         60.07996        66.40509        -3.15682
H         58.29318        64.93950        -3.58421
H         61.41250        35.19487        -0.16392
H         62.71466        66.15486        -3.68168
H         63.48146        34.17353        -0.98963
H         64.83288        67.34937        -3.13056
H         67.27507        32.31920        -2.26488
H         65.14985        33.26630        -1.54060
H         67.80524        70.21435        -1.64719
H         65.70670        68.97382        -2.16669
H         69.18967        31.72706        -1.23255
H         69.57726        72.32464         0.62836
H         72.68413        31.23302        -3.72295
H         71.12681        30.36667        -1.97243
H         72.30394        33.51088        -4.70648
H         72.33333        36.75878        -4.11998
H         72.65865        38.73790        -2.65685
H         72.98546        40.03720        -1.23707
H         73.11702        42.19082        -0.15822
H         73.16703        43.96062         0.61400
H         73.11546        46.38474         0.81566
H         72.94911        48.35557         0.08300
H         72.79471        50.75225        -0.23911
H         72.74774        52.84527         0.19609
H         72.62595        55.19458         0.83355
H         72.28069        57.19145         0.56700
H         72.17695        59.51929         1.28545
H         72.32866        61.05668         2.66047
H         72.30708        63.49741         2.59295
H         72.13632        65.40905         3.21653
H         72.11506        67.87076         3.07967
H         70.92224        69.45080         4.48960
H         71.04517        71.92925         4.68284
H         70.36940        73.37506         2.76164
