         424
 CSIRO Nanostructure Databank - Neutral Graphene Oxide Data Set
C          1.32358         3.60093        -1.72624
C          0.16336         4.31956        -1.96662
C          1.28297         6.41237        -1.38717
C          0.14121         5.71290        -1.80154
C          1.28646         7.86120        -1.20804
C          0.21152         8.64717        -1.62095
C          1.27653        10.71844        -0.90849
C          0.26085        10.06891        -1.54743
C          1.31208        12.22436        -0.89963
C          0.02629        12.85224        -0.41859
C          1.22895        14.92783         0.07467
C          0.00516        14.14874        -0.04403
C          1.21254        16.32465         0.27435
C         -0.00536        17.08052         0.18762
C          1.18174        19.18534         0.60838
C         -0.01608        18.43789         0.32470
C          1.14388        20.57503         0.75417
C         -0.07797        21.33956         0.72002
C          1.16403        23.43483         0.14285
C         -0.07881        22.68027         0.53033
C          1.07363        24.91264         0.58947
C         -0.00461        25.68441        -0.14184
C          1.02713        27.76965         0.74042
C         -0.00819        27.02065        -0.07618
C          1.15167        29.22913         0.25589
C         -0.10835        30.02957         0.51050
C          1.18651        32.08267         0.19622
C         -0.06577        31.37476         0.46561
C          1.18597        33.45004        -0.25676
C         -0.00627        34.20405        -0.41348
C          1.23932        36.13287        -1.22515
C          0.02779        35.52162        -0.85590
C          1.30117        37.52463        -1.62566
C          3.69987         3.55189        -1.04458
C          2.49790         4.27020        -1.30381
C          3.67044         6.35983        -0.69928
C          2.48192         5.68546        -1.12125
C          3.64364         7.78580        -0.46011
C          2.45249         8.49870        -0.66657
C          3.67096        10.64154        -0.11276
C          2.34089         9.92971        -0.19617
C          3.67976        12.06348         0.02340
C          2.50387        12.82053        -0.18841
C          3.68772        14.90666         0.38695
C          2.47137        14.20826         0.08749
C          3.67210        16.31974         0.56630
C          2.43856        17.04513         0.51749
C          3.66256        19.15505         0.92397
C          2.42789        18.45207         0.70176
C          3.66789        20.59286         0.99052
C          2.37347        21.34109         1.16448
C          3.63272        23.43728         0.65700
C          2.43175        22.76027         0.64007
C          3.68282        24.90024         0.40492
C          2.38607        25.65865         0.37093
C          3.61959        27.76892         1.12321
C          2.37041        27.08424         0.65429
C          3.65488        29.23745         0.78409
C          2.34430        29.97706         0.89329
C          3.64698        32.01815         0.10440
C          2.39352        31.39198         0.35674
C          3.65841        33.35721        -0.39418
C          2.43231        34.06170        -0.58421
C          3.68229        35.97401        -1.52216
C          2.45576        35.38790        -1.12440
C          3.66957        37.23963        -2.34138
C          2.44785        38.08105        -2.08030
C          6.07509         3.39693        -0.31663
C          4.85067         4.20611        -0.65746
C          6.09264         6.31986        -0.18658
C          4.86172         5.62859        -0.49557
C          6.08418         7.72646         0.05908
C          4.84944         8.46240        -0.04214
C          6.03716        10.56406         0.61906
C          4.83298         9.88219         0.09719
C          6.09423        12.03659         0.57953
C          4.90703        12.75485         0.36437
C          6.14061        14.87917         0.66734
C          4.90868        14.18424         0.46623
C          6.14172        16.29684         0.78013
C          4.90045        17.01813         0.76881
C          6.14889        19.12643         1.17165
C          4.87615        18.42322         0.96255
C          6.14420        20.62362         1.14283
C          4.85909        21.32744         0.97601
C          6.13672        23.47062         0.85895
C          4.88558        22.74837         0.85564
C          6.15242        24.91392         0.85556
C          4.92553        25.64255         0.71885
C          6.12605        27.76830         0.85174
C          4.90073        27.03097         0.80192
C          6.10411        29.17916         0.83555
C          4.85880        29.91154         0.70463
C          6.09661        32.00979         0.13500
C          4.88385        31.33477         0.35031
C          6.12239        33.32391        -0.42533
C          4.89634        33.99705        -0.68968
C          6.14855        35.97353        -1.48304
C          4.90420        35.31486        -1.25310
C          6.14988        37.35703        -1.92178
C          4.95439        37.99762        -2.23989
C          8.54013         3.53057        -0.62080
C          7.35268         4.18840        -0.42211
C          8.56161         6.32553        -0.14380
C          7.32705         5.61494        -0.22573
C          8.55830         7.72216         0.16206
C          7.32547         8.38282         0.33602
C          8.61974        10.50366         1.11004
C          7.30515         9.77551         0.82577
C          8.57391        11.98926         0.79081
C          7.34928        12.71051         0.72520
C          8.60620        14.83783         0.82359
C          7.36628        14.14263         0.72547
C          8.61398        16.27143         0.86641
C          7.39303        16.99732         0.86342
C          8.63485        19.13127         0.90386
C          7.42152        18.41812         0.92719
C          8.65678        20.58754         0.92447
C          7.37265        21.30897         0.60346
C          8.60410        23.47141         1.02434
C          7.37075        22.78395         0.88702
C          8.60829        24.89565         1.13336
C          7.37026        25.61722         1.01611
C          8.59386        27.76412         1.06692
C          7.37510        27.05924         0.98214
C          8.63810        29.17180         0.90819
C          7.36270        29.90211         0.95175
C          8.63360        31.96695         0.07284
C          7.37699        31.41070         0.54891
C          8.61446        33.27186        -0.51329
C          7.36776        33.96801        -0.70016
C          8.61171        35.98850        -1.39078
C          7.37048        35.30741        -1.20058
C          8.61741        37.37212        -1.78802
C          7.39501        38.03639        -2.01933
C         10.99226         3.55403        -0.84787
C          9.78994         4.23151        -0.61708
C         11.03324         6.34354        -0.28799
C          9.79493         5.63841        -0.34421
C         11.05455         7.74462         0.00737
C          9.82283         8.43917         0.26128
C         11.07747        10.53858         0.59866
C          9.84737         9.81030         0.55989
C         11.04160        11.94023         0.77511
C          9.80624        12.68017         0.79579
C         11.06937        14.83330         0.90982
C          9.82672        14.11246         0.84643
C         11.07604        16.25832         0.96120
C          9.84777        16.98158         0.94180
C         11.11357        19.09792         1.02062
C          9.86735        18.40493         0.93558
C         11.13767        20.58433         0.73319
C          9.83373        21.29535         1.00324
C         11.03289        23.44286         1.39429
C          9.84354        22.74634         1.11689
C         11.03308        24.85928         1.47028
C          9.84012        25.57676         1.32787
C         11.11647        27.75394         1.26986
C          9.81693        27.06081         1.59751
C         11.10378        29.16340         0.88374
C          9.86173        29.86684         0.73220
C         11.07272        31.84262        -0.15053
C          9.87470        31.25300         0.25801
C         11.10247        33.14096        -0.90891
C          9.82848        33.92745        -0.81816
C         11.08230        35.99551        -1.32095
C          9.83912        35.29754        -1.19048
C         11.07605        37.38189        -1.67206
C          9.85462        38.04157        -1.92824
C         13.44738         3.55598        -1.06326
C         12.23060         4.23824        -0.81237
C         13.50087         6.32654        -0.45339
C         12.24929         5.64131        -0.52028
C         13.52653         7.74204        -0.15922
C         12.30538         8.43479         0.07509
C         13.56980        10.51560         0.42771
C         12.33503         9.84141         0.38007
C         13.60199        11.92344         0.85679
C         12.29630        12.67410         0.96893
C         13.51488        14.86357         0.75109
C         12.30345        14.14952         0.86555
C         13.54351        16.26304         0.90567
C         12.30792        16.96100         1.05087
C         13.59322        19.07194         1.37987
C         12.30170        18.38496         1.14252
C         13.59388        20.56320         1.44136
C         12.32506        21.27805         1.30127
C         13.49786        23.41381         0.94277
C         12.32361        22.70652         1.69615
C         13.55976        24.87527         1.27592
C         12.31708        25.59344         1.80744
C         13.58825        27.81163         1.54587
C         12.28166        27.06502         1.42407
C         13.56322        29.19825         0.93804
C         12.32355        29.81168         0.63495
C         13.58588        31.95064         0.12103
C         12.36952        31.08457        -0.16380
C         13.55055        33.35519        -0.22659
C         12.34949        33.96041        -0.66191
C         13.52837        36.09267        -0.96847
C         12.31973        35.33972        -0.99285
C         13.51520        37.47770        -1.39171
C         12.30827        38.08715        -1.74447
C         15.91982         3.54597        -1.30890
C         14.66931         4.23350        -1.02106
C         16.03214         6.27058        -0.50184
C         14.68928         5.61767        -0.69661
C         15.98799         7.77894        -0.48845
C         14.77170         8.44856        -0.18024
C         16.04225        10.54692         0.02685
C         14.80031         9.85637         0.08648
C         16.11247        11.99530         0.29653
C         14.86537        12.72297         0.67338
C         16.00800        14.92018         0.27417
C         14.71264        14.15310         0.17842
C         16.03519        16.23548         0.63120
C         14.80844        16.98050         0.88928
C         16.09351        19.11366         1.02573
C         14.85233        18.35638         1.08224
C         16.08655        20.55897         1.09960
C         14.85801        21.29838         1.20069
C         16.05347        23.42579         1.05764
C         14.82349        22.68531         1.09035
C         16.02176        24.83696         1.04593
C         14.77093        25.52857         1.18149
C         16.03406        27.74031         0.81644
C         14.76111        27.00829         1.02165
C         16.02879        29.21097         1.05945
C         14.75574        29.91550         0.80674
C         16.04898        32.05038         0.49701
C         14.77705        31.32292         0.48670
C         16.00635        33.57413         0.48506
C         14.74119        34.14266        -0.12970
C         15.97813        36.32187        -0.36762
C         14.73273        35.47787        -0.54248
C         15.96588        37.59428        -1.18103
C         14.74381        38.18070        -1.52415
C         18.33489         3.58398        -1.82190
C         17.08358         4.23453        -1.50868
C         18.37637         6.41750        -1.35684
C         17.03410         5.74833        -1.52469
C         18.41171         7.79309        -1.03743
C         17.18807         8.48476        -0.65240
C         18.45063        10.62635        -0.58732
C         17.22382         9.89592        -0.40462
C         18.45699        12.06996        -0.48352
C         17.28223        12.74967        -0.15873
C         18.52283        14.93326        -0.07095
C         17.21267        14.24454        -0.34004
C         18.55391        16.27235         0.34040
C         17.34220        16.91918         0.97031
C         18.54430        19.13243         0.78179
C         17.30492        18.42781         0.84084
C         18.55493        20.55785         0.89872
C         17.31042        21.27764         1.02698
C         18.52994        23.43787         0.98761
C         17.30704        22.71130         1.07035
C         18.54279        24.83736         0.88434
C         17.31085        25.59539         1.29041
C         18.51429        27.71896         0.65095
C         17.32014        27.03051         0.85445
C         18.54601        29.16458         0.55423
C         17.32125        29.93539         0.87654
C         18.55654        32.07532         0.52269
C         17.24723        31.38466         0.58842
C         18.55392        33.55855         0.15281
C         17.26096        34.21914        -0.08891
C         18.47582        36.18425        -0.93252
C         17.25122        35.51506        -0.53586
C         18.42538        37.53700        -1.39475
C         17.17246        38.20217        -1.53255
C         19.49748         4.28676        -1.92421
C         20.78485         6.41276        -1.66349
C         19.55442         5.71462        -1.66445
C         20.81941         7.77623        -1.42035
C         19.64115         8.50067        -1.11573
C         20.81412        10.70751        -1.17738
C         19.64701         9.94700        -0.94095
C         20.82850        12.09555        -1.05388
C         19.67764        12.81199        -0.69801
C         20.92852        14.96319        -0.38154
C         19.71348        14.24295        -0.41517
C         20.94966        16.31029        -0.05647
C         19.77391        16.98829         0.33454
C         20.98147        19.13199         0.71439
C         19.78061        18.41973         0.63327
C         20.98623        20.52110         0.87020
C         19.79532        21.24496         0.91466
C         20.92137        23.42465         0.30640
C         19.85753        22.73657         1.13102
C         20.86907        24.75576         0.09467
C         19.72392        25.54600         0.52357
C         20.92790        27.69669         0.16766
C         19.74185        26.96582         0.46681
C         20.92671        29.06623         0.06096
C         19.73655        29.83918         0.27276
C         20.93368        31.99980        -0.06555
C         19.77816        31.30044         0.24302
C         20.94198        33.38661        -0.36379
C         19.78533        34.14572        -0.39275
C         20.89138        36.18842        -1.31486
C         19.72645        35.50807        -0.89820
C         20.83351        37.51332        -1.75247
C         19.61688        38.18552        -1.79640
O         13.02132        12.18014         2.17455
O          6.38031         9.97870         1.95556
O         13.64829        19.74156         2.71704
O          6.25051        19.94742         2.42261
O         15.80942        12.45924         1.73082
O         16.78531        29.61451         2.23830
O         15.16509        27.37698        -0.34143
O         18.69572        33.10922         1.56252
O          3.10740        25.29613        -0.90708
O          7.36859        30.97721         1.94897
O          1.45563        12.62205        -2.31153
H          1.41024        13.60152        -2.34241
O         12.60014        22.79684         3.11685
H         12.89346        21.91814         3.43989
O          3.55058        36.80491        -3.76592
H          2.70484        36.31276        -3.84009
O         14.38487        13.98240        -1.25916
H         14.06267        14.84820        -1.59179
O         13.10496        23.33069        -0.46144
H         13.75414        23.84253        -0.98905
O          3.55519        27.70000         2.62070
H          2.98772        28.45481         2.91000
O         17.51303        16.68084         2.41314
H         16.75945        17.10535         2.87653
O         12.57295        30.61998        -1.55825
H         12.31333        31.37795        -2.14468
O         16.53906         6.14547        -2.83725
H         17.17019         5.81142        -3.50826
O         12.45355        25.54746         3.25656
H         13.10973        26.23995         3.51017
O         17.01574        14.40154        -1.80177
H         16.11009        14.05385        -1.99656
O          2.21549        21.49455         2.63372
H          3.02164        21.94282         2.96930
O         15.98278        36.74039         1.03494
H         15.95218        35.91139         1.57706
O          1.36770        29.15496        -1.16848
H          1.38992        30.06991        -1.52024
O          2.05555        30.06801         2.34372
H          2.64134        30.76209         2.71670
O         11.27284        20.64270        -0.75421
H         10.48079        20.19982        -1.12873
O         17.40196        25.65875         2.78143
H         16.68141        26.24575         3.09902
O          0.80066        24.91342         2.00515
H          0.64432        25.84886         2.28536
O         11.20004        32.76876        -2.37073
H         10.32654        32.40099        -2.62793
O          6.13935         2.19902        -1.09686
H          6.20718         2.45245        -2.03993
O          9.69803        27.20247         3.05965
H          8.93625        26.65766         3.35104
O          0.55258        27.76162         2.12411
H          0.99568        28.50352         2.59901
O          1.21692        23.41069        -1.30945
H          1.96256        24.00813        -1.57314
O          7.23834        21.18290        -0.86287
H          7.89572        21.78401        -1.27384
O         16.52413         5.85959         0.80925
H         15.89449         6.18693         1.48518
O          8.81783        10.45539         2.55934
H          7.91578        10.47984         2.95897
O         20.25328        22.90615         2.53795
H         20.09672        23.84604         2.77371
O          1.88653         9.84170         1.21587
H          2.57011         9.33765         1.70802
O         15.99962        33.98900         1.89764
H         16.86494        33.68606         2.26896
O         13.83951        27.95318         2.98883
H         13.14949        28.54706         3.35597
H          1.34309         2.50987        -1.85891
H         -0.74951         3.79979        -2.28952
H         -0.79749         6.24854        -1.99690
H         -0.66667         8.18531        -2.09105
H         -0.53584        10.64685        -2.03817
H         -0.90639        12.27182        -0.47216
H         -0.95154        14.61511         0.23127
H         -0.94984        16.56125        -0.02314
H         -0.96989        18.97262         0.22397
H         -1.03893        20.82418         0.86925
H         -1.03057        23.23192         0.53940
H         -0.75831        25.14237        -0.73283
H         -0.77532        27.60704        -0.60409
H         -1.05977        29.50201         0.67091
H         -0.98907        31.95532         0.60124
H         -0.97668        33.75727        -0.16004
H         -0.90790        36.09477        -0.92925
H          0.38856        38.13181        -1.52335
H          3.71329         2.45804        -1.15917
H          2.47335        39.14115        -2.37417
H          5.97352         3.06450         0.75692
H          4.97141        39.05251        -2.55336
H          8.53608         2.44177        -0.77699
H          7.40686        39.09245        -2.32802
H         10.97705         2.47445        -1.05764
H          9.86474        39.10422        -2.21134
H         13.42227         2.48296        -1.30418
H         12.30399        39.14272        -2.05367
H         15.90439         2.44768        -1.38856
H         14.73635        39.17480        -1.99734
H         18.33601         2.49144        -1.95564
H         17.15282        39.18795        -2.02278
H         20.43851         3.76644        -2.15585
H         21.71550         5.86891        -1.88036
H         21.78874         8.29087        -1.45817
H         21.74636        10.20565        -1.46801
H         21.77403        12.62284        -1.23910
H         21.87538        14.46808        -0.63561
H         21.91076        16.84042        -0.08780
H         21.94500        18.60828         0.66363
H         21.94881        21.04257         0.95960
H         21.79563        22.85108        -0.03444
H         21.68862        25.25118        -0.44533
H         21.87711        27.16028         0.03471
H         21.87479        29.57419        -0.15762
H         21.88204        31.46235        -0.19765
H         21.89536        33.82335        -0.69084
H         21.86532        35.68227        -1.28363
H         21.75533        38.02341        -2.06469
H         19.56942        39.22579        -2.14850
