         598
 CSIRO Nanostructure Databank - Neutral Graphene Oxide Data Set
C         23.28978        69.44852        -1.83157
C         23.34148        70.83190        -2.13637
C         22.23245        71.50351        -2.71945
C         23.52194        73.54375        -2.92631
C         22.32987        72.84041        -3.09970
C         25.60367        65.26288        -1.05408
C         25.52628        66.64689        -0.70535
C         24.47195        67.36043        -1.24999
C         25.58296        69.53507        -0.97774
C         24.40378        68.79626        -1.29304
C         25.67704        70.89543        -1.31617
C         24.55634        71.54823        -1.91399
C         25.87111        73.60284        -2.17553
C         24.64982        72.91781        -2.33341
C         28.12392        61.13511        -0.16349
C         28.01389        62.52062         0.00614
C         26.90223        63.12147        -0.66839
C         27.89710        65.43844         0.84414
C         26.36143        64.35653        -0.31381
C         27.86199        66.79564         0.56344
C         26.52015        67.44389         0.19469
C         28.02103        69.57645        -0.19312
C         26.76439        68.78658        -0.49284
C         27.95459        71.04275        -0.36019
C         26.88289        71.64575        -1.01665
C         28.18333        73.71269        -1.40822
C         26.97386        73.01895        -1.49968
C         30.40447        56.87396        -0.15894
C         30.36804        58.21195         0.29909
C         29.23787        58.99120         0.09396
C         30.33310        61.09412         0.87595
C         29.21765        60.39708         0.32037
C         30.32826        62.50322         0.98553
C         29.10580        63.24014         0.66997
C         30.24705        65.34596         1.43810
C         29.07404        64.62365         0.91905
C         30.18027        66.87138         1.51317
C         29.04155        67.58191         0.85087
C         30.20721        69.77921         1.13514
C         29.07877        68.95218         0.64589
C         30.24970        71.24890         0.79516
C         29.03387        71.87738         0.17141
C         30.55119        73.84907        -0.52379
C         29.19443        73.28391        -0.46496
C         32.82154        52.92469        -1.73289
C         32.82986        54.22324        -1.20531
C         31.63753        54.86410        -0.79737
C         32.85682        56.78336         0.24420
C         31.59474        56.14692        -0.21254
C         32.86387        58.18256         0.79836
C         31.53372        58.80573         1.00106
C         32.75861        61.00109         1.67803
C         31.48128        60.29276         1.34378
C         32.77170        62.48173         1.55059
C         31.54453        63.19524         1.36124
C         32.72169        65.34849         1.65492
C         31.55000        64.64157         1.46134
C         32.76953        66.82711         1.81209
C         31.48646        67.60344         1.72040
C         32.81473        69.75293         1.18899
C         31.51718        69.09373         1.49801
C         32.84588        71.12307         0.80059
C         31.59488        71.93886         0.70389
C         32.94219        74.01159        -0.00575
C         31.64671        73.24386        -0.01530
C         35.08266        48.64832        -1.93458
C         34.88613        49.90197        -2.49216
C         33.86015        50.84130        -2.20613
C         35.25178        53.06152        -2.27242
C         33.98746        52.24580        -2.17027
C         35.24710        54.43250        -1.67417
C         34.09365        54.93855        -1.13971
C         35.29474        57.04967        -0.43893
C         34.10283        56.18543        -0.34450
C         35.28465        58.27372         0.44040
C         34.04513        58.82636         1.09040
C         35.32157        61.06640         1.69568
C         34.07907        60.21956         1.68254
C         35.26502        62.48602         1.70509
C         33.99853        63.16358         1.69503
C         35.27264        65.40784         1.92840
C         33.96681        64.61831         1.90296
C         35.25334        66.85618         1.60931
C         34.04414        67.55633         1.54935
C         35.27637        69.59184         0.96626
C         34.02522        68.96761         1.24237
C         35.29218        70.94989         0.41491
C         34.06126        71.75000         0.42891
C         35.38094        73.79228        -0.01613
C         34.16246        73.13581         0.09463
C         37.69040        44.43362        -1.42341
C         37.23579        45.69309        -1.14563
C         36.23356        46.56291        -1.72535
C         37.73486        48.66395        -2.00657
C         36.34568        47.94609        -1.82493
C         37.75206        50.20285        -1.88141
C         36.79531        50.97065        -2.48784
C         37.71294        53.04912        -1.42472
C         36.63917        52.42203        -2.31909
C         37.79084        54.54220        -1.49944
C         36.51519        55.29459        -1.81607
C         37.77778        57.37638        -0.92518
C         36.56125        56.46874        -0.88883
C         37.77832        58.34712         0.24738
C         36.62971        58.56241         0.94043
C         37.80933        61.13228         1.62597
C         36.58924        60.48052         1.86396
C         37.77623        62.54915         1.62144
C         36.51240        63.23119         1.71648
C         37.73357        65.37875         1.73651
C         36.51911        64.65059         1.73209
C         37.72748        66.81817         1.70165
C         36.51333        67.52808         1.49809
C         37.74229        69.67430         1.24056
C         36.51171        68.93490         1.18906
C         37.81575        71.03894         0.93835
C         36.64663        71.69362         0.34436
C         37.80173        73.87303         0.43424
C         36.62598        73.16096         0.25226
C         39.93971        40.46318         0.43842
C         39.99489        41.76717        -0.02930
C         38.84362        42.47346        -0.54751
C         40.00767        44.62550        -0.08742
C         38.83014        43.83712        -0.72685
C         40.17330        46.09211        -0.47486
C         38.99647        46.89648        -0.53162
C         40.16172        48.85717        -1.18325
C         38.91202        48.11016        -1.19635
C         40.20589        50.21678        -1.72533
C         39.01443        50.92788        -1.69125
C         40.23442        53.06065        -1.55964
C         39.03509        52.36060        -1.64666
C         40.26367        54.45821        -1.24578
C         39.02261        55.19008        -1.23158
C         40.28998        57.20325        -0.63409
C         39.07415        56.58102        -0.92372
C         40.25527        58.60992        -0.13288
C         39.04216        58.99661         0.67355
C         40.31945        61.17979         1.30829
C         39.06531        60.38117         1.36747
C         40.28952        62.57117         1.69660
C         39.01151        63.27359         1.73513
C         40.16765        65.41353         2.24532
C         38.96456        64.66854         1.85648
C         40.15250        66.88156         2.13901
C         38.96764        67.54131         1.87925
C         40.16785        69.83035         2.09859
C         38.90256        69.02386         1.88736
C         40.21547        71.21658         1.57222
C         39.00749        71.81999         1.12609
C         40.22549        73.94324         0.86170
C         39.02003        73.21791         0.79656
C         42.20457        36.50163         2.40821
C         42.25573        37.74893         1.81311
C         41.07678        38.49003         1.44941
C         42.41963        40.29262         0.41493
C         41.11199        39.73136         0.83062
C         42.50846        41.68390        -0.16022
C         41.26367        42.48249        -0.15634
C         42.57811        44.46184        -0.81042
C         41.29734        43.83967        -0.28632
C         42.64310        45.96495        -0.72320
C         41.40941        46.68242        -0.73743
C         42.75266        48.76882        -1.26605
C         41.48050        48.14266        -0.87686
C         42.76475        50.05971        -2.05308
C         41.47375        50.86424        -2.02554
C         42.77668        53.04510        -1.55994
C         41.49976        52.38949        -1.88358
C         42.77350        54.38087        -1.17588
C         41.51410        55.11768        -1.06475
C         42.81216        57.20230        -0.60073
C         41.51971        56.49815        -0.75491
C         42.83390        58.65808        -0.16793
C         41.53061        59.34785         0.12403
C         42.78509        61.19794         1.25243
C         41.52530        60.56731         0.97405
C         42.76930        62.58692         1.69680
C         41.49749        63.25770         1.85943
C         42.74237        65.47562         2.17196
C         41.49605        64.67202         2.28529
C         42.70720        66.83634         2.19394
C         41.43155        67.58483         2.38996
C         42.72527        69.77571         1.97253
C         41.45766        69.09360         2.34011
C         42.68303        71.26548         1.91773
C         41.41513        71.94091         1.57728
C         42.68075        74.05454         1.10599
C         41.44444        73.32163         1.19509
C         44.52987        34.06178         4.13606
C         43.34813        34.63626         3.57047
C         44.69998        36.27975         2.33435
C         43.39132        35.78685         2.80041
C         44.83045        37.65201         1.84460
C         43.57591        38.42347         1.70938
C         44.95564        40.30328         0.62471
C         43.65343        39.75893         1.05018
C         45.00427        41.60207         0.14169
C         43.81510        42.36749        -0.11223
C         45.03055        44.47707        -0.24861
C         43.83848        43.76885        -0.33193
C         45.07690        45.94687        -0.34857
C         43.84412        46.65622        -0.72833
C         45.22603        48.68458        -1.38048
C         43.92882        48.06220        -1.09304
C         45.25002        50.08293        -1.91234
C         44.00238        50.88965        -1.77050
C         45.27851        53.02636        -1.67450
C         44.00195        52.25808        -1.65936
C         45.26556        54.36476        -1.02044
C         44.03535        55.04684        -0.85486
C         45.24908        57.04959        -0.05368
C         44.04830        56.40780        -0.45642
C         45.22180        58.40501         0.46975
C         44.05557        59.16435         0.49739
C         45.24017        61.07554         1.57464
C         43.98494        60.47036         1.12044
C         45.23534        62.57676         1.86206
C         43.95632        63.28590         1.86803
C         45.23054        65.43961         1.70291
C         44.04764        64.72155         2.32511
C         45.26619        66.90392         1.85157
C         43.97113        67.62960         2.17594
C         45.13870        69.76879         1.42988
C         43.89941        69.08697         1.88888
C         45.15962        71.25508         1.29846
C         43.95139        72.02914         1.70039
C         45.17722        74.09115         1.10547
C         43.91995        73.44710         1.27151
C         45.78216        34.56315         3.91035
C         47.20406        36.42387         2.86796
C         46.00283        35.60776         2.90896
C         47.27413        37.59238         2.09703
C         46.06103        38.20671         1.57215
C         47.45726        40.23220         0.89527
C         46.19056        39.43387         0.68442
C         47.55757        41.54807         0.42115
C         46.32522        42.24443        -0.07166
C         47.55453        44.51540         0.04595
C         46.30118        43.74773        -0.18480
C         47.64237        45.87566        -0.51640
C         46.39599        46.66301        -0.52336
C         47.71355        48.61581        -1.35238
C         46.41205        48.01538        -1.12496
C         47.79655        49.95326        -1.80830
C         46.58099        50.78235        -2.09651
C         47.80459        53.04726        -1.48377
C         46.59124        52.31148        -1.95754
C         47.72003        54.28107        -0.86806
C         46.48189        55.00209        -0.66381
C         47.72486        56.99669         0.22081
C         46.48195        56.32701        -0.12818
C         47.74103        58.26918         0.75105
C         46.45453        58.91096         1.20309
C         47.70495        61.10133         1.26811
C         46.52230        60.41644         1.22909
C         47.71289        62.57833         1.45488
C         46.44936        63.32221         1.53029
C         47.53684        65.46186         0.75057
C         46.38855        64.72518         1.36226
C         47.58788        66.97494         0.81647
C         46.43419        67.67913         1.38534
C         47.64909        69.80982         1.16056
C         46.43837        69.06240         1.37892
C         47.63770        71.23796         1.23551
C         46.44927        71.96659         1.29087
C         47.65149        74.10238         1.05831
C         46.40988        73.40873         1.20197
C         48.50686        38.29800         2.00438
C         49.84866        40.29853         1.45900
C         48.61469        39.59716         1.44056
C         49.98766        41.59290         0.92521
C         48.80512        42.21821         0.40061
C         49.94292        44.31616        -0.52502
C         48.81014        43.68015         0.11906
C         50.06922        45.66513        -0.72386
C         48.86597        46.47149        -0.76608
C         50.19649        48.46713        -1.34358
C         48.92887        47.86751        -1.18164
C         50.28040        49.85755        -1.63191
C         49.07667        50.44973        -2.08020
C         50.28156        52.81574        -1.08987
C         49.12293        52.53325        -1.79016
C         50.20461        54.07029        -0.30729
C         49.01521        54.94566        -0.58356
C         50.27832        56.89658         0.50532
C         49.02201        56.34009        -0.06586
C         50.23871        58.31067         0.82094
C         48.98989        58.98751         0.92615
C         50.19188        61.11946         1.00989
C         48.97657        60.40019         1.09298
C         50.16092        62.56256         0.65091
C         48.94667        63.33220         1.03734
C         50.09482        65.50126         0.21845
C         48.82543        64.72609         0.51096
C         50.04999        67.00564         0.16712
C         48.85077        67.72443         0.65165
C         50.13464        69.85606         0.74883
C         48.87994        69.10168         0.87650
C         50.14787        71.25972         0.93765
C         48.93354        71.97583         1.46567
C         50.09830        74.13170         0.91795
C         48.87719        73.44009         1.08421
C         51.26392        42.29230         1.09247
C         52.64509        44.36133         0.43074
C         51.68992        43.32534         0.26382
C         52.62964        45.60302        -0.28674
C         51.43351        46.20799        -0.98368
C         52.70981        48.46700        -1.10436
C         51.46369        47.69546        -1.27927
C         52.70910        49.85667        -1.23877
C         51.50093        50.61908        -1.43928
C         52.72551        52.65937        -0.72631
C         51.50829        52.02864        -1.14679
C         52.77005        53.95877         0.08231
C         51.45068        54.71521         0.19797
C         52.76001        56.84043         0.71413
C         51.45670        56.18142         0.45507
C         52.74427        58.33358         0.96737
C         51.44615        59.03363         0.96255
C         52.69791        61.19379         1.11466
C         51.42462        60.43700         0.98465
C         52.68181        62.69032         0.91739
C         51.42587        63.36230         0.47648
C         52.59913        65.56618         0.39030
C         51.40238        64.84610         0.43330
C         52.64183        66.99693         0.31990
C         51.37444        67.74747         0.16829
C         52.57901        69.90457         0.40777
C         51.35725        69.19023         0.48845
C         52.53697        71.31938         0.45319
C         51.33375        71.99556         0.74614
C         52.54447        74.18422         0.72395
C         51.33090        73.46088         0.81411
C         53.77699        46.39594        -0.20823
C         55.09865        48.42521        -0.49686
C         53.88751        47.75320        -0.66840
C         55.28603        49.79907        -0.92027
C         53.98863        50.58321        -1.23213
C         55.20908        52.69838        -0.75077
C         53.97196        52.01596        -0.90101
C         55.19981        54.16904        -0.77200
C         53.89824        54.86076        -0.38618
C         55.15950        56.94770         0.00099
C         53.98870        56.23386         0.13520
C         55.13294        58.42394         0.13502
C         53.95186        59.12212         0.65148
C         55.19120        61.26555         0.77295
C         53.97535        60.49726         0.83666
C         55.14609        62.69555         0.80468
C         53.94354        63.39099         0.68204
C         55.16548        65.61609         0.43525
C         53.88065        64.81587         0.33620
C         55.11100        67.07831         0.52530
C         53.86114        67.73443         0.39508
C         55.05754        69.88533         0.28566
C         53.84670        69.18717         0.33059
C         55.05022        71.35874         0.12585
C         53.75503        72.10166         0.20426
C         55.00884        74.24629         0.43847
C         53.78344        73.55416         0.50319
C         56.52674        50.54017        -0.44282
C         57.65219        52.76488        -0.67043
C         56.46759        52.03683        -0.66629
C         57.68716        54.20420        -0.64697
C         56.45050        54.91098        -0.60374
C         57.66059        56.99023        -0.23675
C         56.42375        56.30011        -0.34725
C         57.68207        58.40448         0.15448
C         56.42180        59.19689         0.08704
C         57.65336        61.30218         0.44163
C         56.45132        60.61229         0.53176
C         57.73578        62.72139         0.80505
C         56.40695        63.43916         0.99754
C         57.68624        65.69237         0.80907
C         56.38020        64.93133         0.94959
C         57.58816        67.09823         0.40729
C         56.36093        67.77752         0.46180
C         57.53800        69.92729         0.14908
C         56.32833        69.21780         0.29885
C         57.50356        71.39700        -0.01206
C         56.29471        72.09660         0.56396
C         57.47522        74.27803         0.20421
C         56.26594        73.59013         0.32501
C         58.89817        54.92510        -0.61545
C         60.14072        57.08224        -0.50752
C         58.91004        56.33264        -0.44889
C         60.20921        58.47160        -0.34501
C         58.97606        59.16485         0.08694
C         60.14698        61.41433        -0.21287
C         58.87062        60.64213        -0.07877
C         60.16636        62.84911         0.15477
C         58.94993        63.52274         0.49301
C         60.12780        65.65872         0.30225
C         58.92871        64.92196         0.55225
C         60.10378        67.07753         0.18902
C         58.80786        67.77973        -0.14607
C         60.00073        69.99419         0.08156
C         58.79772        69.27390         0.07931
C         60.04942        71.42332         0.01110
C         58.77935        72.16106        -0.13039
C         59.95672        74.30304         0.00450
C         58.75317        73.63019         0.08210
C         61.39195        59.24808        -0.46690
C         62.60767        61.40196        -0.32008
C         61.42514        60.66017        -0.30339
C         62.63603        62.82962        -0.12180
C         61.37761        63.54111         0.12268
C         62.58851        65.70342         0.17605
C         61.37749        64.96921         0.24264
C         62.56330        67.10874         0.13199
C         61.29987        67.78545         0.14839
C         62.56574        70.01118         0.12994
C         61.26785        69.25632         0.26234
C         62.51227        71.46385        -0.12605
C         61.24844        72.14601        -0.02738
C         62.39100        74.29334        -0.36962
C         61.22163        73.60597        -0.14320
C         63.82287        63.53066        -0.11875
C         65.01743        65.72922        -0.39396
C         63.90707        64.97779         0.28243
C         64.98113        67.11953        -0.51504
C         63.78060        67.85322        -0.14878
C         64.89928        69.97271        -0.73052
C         63.77325        69.25075        -0.24147
C         64.85859        71.39743        -0.84480
C         63.67326        72.13160        -0.47368
C         64.75819        74.23052        -1.28533
C         63.74368        73.63254        -0.35021
C         66.10286        67.85128        -1.00513
C         67.19266        69.98973        -1.62613
C         66.07846        69.25209        -1.12296
C         67.12337        71.36768        -1.80472
C         65.94274        72.08737        -1.43755
C         66.86215        74.16764        -2.61253
C         65.82134        73.50929        -1.72997
C         68.25981        72.11264        -2.33694
C         68.16048        73.41356        -2.66761
O         50.62898        67.49610        -1.08449
O         42.51995        40.48893        -1.02922
O         40.74763        64.92617         3.51415
O         57.17447        62.96502         2.14217
O         36.64941        59.12797         2.21984
O         44.90951        70.42986         0.10567
O         45.85281        50.26751        -3.24529
O         45.29767        61.57386         2.95284
O         48.26833        44.38793         1.31365
O         35.13448        58.40844        -1.02856
O         31.16791        59.26632         2.33723
O         54.90923        50.14786        -2.28076
O         50.95987        43.46835        -0.94390
O         58.45590        58.69632         1.37122
O         35.89531        50.36012        -3.36070
O         36.09392        53.07584        -3.49411
O         56.99672        65.51261         2.11762
O         30.77596        72.01854         1.91047
O         51.61891        46.67138        -2.35008
O         40.71773        59.60704        -1.08881
O         44.89600        67.30944         3.26874
O         30.62137        69.63751         2.52622
O         50.73674        62.74690        -0.67567
O         52.64744        62.09716         2.27114
O         33.32835        60.45939         2.90783
O         28.62087        73.06821         0.87758
O         54.41932        71.81143        -1.09597
O         36.07511        71.03561        -0.82901
O         49.29761        64.86220        -0.84707
O         50.54060        53.98669         1.12315
O         54.70000        65.11353        -0.86094
O         49.17664        51.61714        -2.84352
O         62.02080        69.68854         1.46245
O         52.92368        57.37168         2.07456
O         41.43766        51.73789        -3.20206
O         43.45248        71.83319         3.05843
O         43.00618        58.31280        -1.56650
O         34.59642        65.04772         3.17384
O         29.85818        66.06350         2.67255
O         55.65858        59.01997        -1.13708
O         32.07744        67.29957         3.02057
O         45.46097        35.30464         1.58171
O         57.96916        71.81094        -1.33012
O         49.25503        56.05258        -1.51462
O         37.84004        46.30111        -0.02277
O         39.27170        59.11789         2.10072
O         48.69422        63.13058         2.45347
O         45.73461        46.61017         0.80519
O         46.47541        42.86605        -1.38494
O         43.57417        39.67058         2.52490
O         54.26412        54.73167        -1.77644
O         45.90051        53.02584        -3.01675
O         26.66812        64.79829         0.98960
O         41.48642        68.39873         3.61939
O         40.77251        48.88410         0.18481
O         33.71567        55.90002         1.04873
O         59.28097        61.13832        -1.39449
O         27.85193        68.81333        -1.46552
O         47.14952        66.23043        -0.42030
O         39.21584        69.64867         3.18655
O         42.53797        44.20531        -2.26010
H         42.57793        43.23379        -2.39619
O         56.71685        50.28950         0.96236
H         56.11922        50.87478         1.47165
O         36.54600        55.76346        -3.21427
H         36.48061        54.95486        -3.77998
O         37.24534        52.68158        -0.07485
H         37.92700        52.96637         0.57034
O         39.73520        44.61946         1.34374
H         38.90580        45.13243         1.47126
O         25.81691        67.73849         1.42257
H         25.70281        66.89449         1.90970
O         42.91855        49.60775        -3.43082
H         42.76836        50.39302        -4.00550
O         37.73028        58.10422        -2.18330
H         37.39673        57.47753        -2.87044
O         33.04209        74.88509        -1.13624
H         33.25531        74.34682        -1.92557
O         38.07382        48.36787        -3.39336
H         37.41539        48.83527        -3.95477
O         46.29269        58.50215         2.60766
H         45.83965        59.22710         3.09171
O         67.07874        75.52724        -2.21871
H         67.37140        75.53157        -1.28451
O         64.26107        64.97397         1.72807
H         64.20580        65.90173         2.04371
O         64.27190        73.88343         1.01428
H         63.66684        73.43670         1.64479
O         56.35412        71.90679         2.01034
H         57.05731        72.48625         2.37162
O         58.70659        67.62455        -1.61633
H         57.93182        68.14664        -1.91852
O         44.29620        64.66093         3.76323
H         44.45913        65.58834         4.06320
O         49.10819        71.96770         2.93199
H         48.37835        72.49750         3.31845
O         53.13822        53.56921         1.43536
H         52.29890        53.36165         1.90750
O         46.31496        38.86466        -0.67279
H         46.43746        39.60838        -1.30163
H         23.59682        74.59329        -3.24450
H         25.96050        74.63755        -2.53858
H         28.34583        74.62399        -2.00231
H         30.68081        74.81873        -1.03093
H         32.91876        74.67660         0.90306
H         35.36997        74.87606        -0.20499
H         37.80212        74.96568         0.30721
H         40.21986        75.01150         0.59941
H         42.63115        75.11488         0.81589
H         45.19271        75.17119         0.89478
H         47.63093        75.18729         0.87315
H         50.07971        75.22912         0.83039
H         52.51381        75.27798         0.84508
H         54.99435        75.34659         0.48704
H         57.45468        75.37876         0.16797
H         59.97605        75.40205         0.06056
H         62.36583        75.39243        -0.43179
H         64.69214        75.30342        -1.52232
H         66.45514        74.21030        -3.66454
H         22.38890        68.87109        -2.08552
H         21.29490        70.95144        -2.87658
H         21.46333        73.34233        -3.55225
H         25.09843        64.93197        -1.97423
H         23.67123        66.80450        -1.76214
H         27.31132        60.59819        -0.67389
H         26.46376        62.56828        -1.51258
H         29.48773        56.43747        -0.58254
H         28.35923        58.53523        -0.38605
H         31.87692        52.36068        -1.70986
H         30.68126        54.36669        -1.01960
H         34.22690        48.18467        -1.41858
H         32.91513        50.43611        -1.81029
H         37.19256        43.82303        -2.19179
H         35.25467        46.11492        -1.96828
H         38.95992        39.97348         0.54592
H         37.96448        41.87950        -0.84191
H         41.22820        36.03368         2.60642
H         40.09924        38.03754         1.67685
H         44.40424        33.24062         4.85640
H         42.37265        34.22605         3.86915
H         46.64155        34.19991         4.49262
H         48.07237        36.12523         3.47501
H         49.40782        37.83626         2.43579
H         50.72527        39.80652         1.90576
H         51.87744        42.00937         1.96095
H         53.45604        44.22115         1.16285
H         54.67414        45.96113         0.25942
H         55.90953        47.94257         0.06906
H         57.42171        50.11590        -0.96572
H         58.60846        52.22279        -0.62144
H         59.85085        54.38319        -0.70503
H         61.06040        56.53033        -0.75385
H         62.34152        58.72706        -0.66406
H         63.56764        60.87911        -0.45022
H         64.76829        62.99422        -0.29371
H         65.93980        65.18878        -0.65661
H         67.00986        67.30075        -1.29617
H         68.10847        69.44909        -1.90751
H         69.21546        71.57852        -2.44959
H         69.03530        73.95600        -3.05583
