         204
 CSIRO Nanostructure Databank - Neutral Graphene Oxide Data Set
C        -11.19835         0.67367        -0.15649
C        -10.04020         1.46012        -0.69785
C         -8.74874         0.68463        -0.73418
C         -7.54865         1.46549        -1.09614
C         -6.22223         0.69398        -1.20459
C         -4.97201         1.44745        -1.06423
C         -3.72885         0.71769        -1.08243
C         -2.49920         1.44585        -1.15388
C         -1.26423         0.71269        -1.47937
C          0.03776         1.50883        -1.51776
C          1.32841         0.74779        -1.47858
C          2.54668         1.45572        -1.02323
C          3.74542         0.73928        -0.83991
C          4.97144         1.40943        -0.60106
C          6.22573         0.68722        -0.52171
C          7.44221         1.40817        -0.30576
C          8.68267         0.70025        -0.22274
C          9.88971         1.42625         0.09674
C         11.11018         0.66941         0.33029
C         -9.84305         2.77882        -0.00402
C         -8.65850         3.51542        -0.16039
C         -7.47170         2.89221        -0.75843
C         -6.24796         3.57282        -0.84573
C         -5.01147         2.84189        -1.04014
C         -3.73877         3.58051        -1.10577
C         -2.46056         2.84863        -1.08448
C         -1.22917         3.57905        -0.93986
C          0.01985         2.91230        -1.05785
C          1.24820         3.57100        -0.79145
C          2.50527         2.85762        -0.80858
C          3.72703         3.54428        -0.53656
C          4.96153         2.83062        -0.48159
C          6.18360         3.53438        -0.24166
C          7.41818         2.82273        -0.14983
C          8.63254         3.53184         0.11313
C          9.84987         2.80278         0.25217
C         -8.59999         4.85683         0.24621
C         -7.49625         5.71914        -0.28026
C         -6.18886         4.96712        -0.40663
C         -5.00277         5.59003        -0.13022
C         -3.73296         5.03329        -0.61378
C         -2.45365         5.62850        -0.21009
C         -1.24161         4.96124        -0.49680
C         -0.00204         5.64106        -0.26463
C          1.24490         4.96581        -0.45111
C          2.46962         5.66564        -0.28024
C          3.72375         4.96598        -0.35325
C          4.94483         5.65643        -0.18300
C          6.16868         4.95112        -0.10123
C          7.39801         5.65093         0.18289
C          8.59237         4.93876         0.28480
C         -7.38687         7.05340         0.40067
C         -6.21336         7.59148         0.80487
C         -4.94768         6.76706         0.81350
C         -3.68493         7.58384         0.69818
C         -2.46698         6.94981         0.34118
C         -1.23394         7.65423         0.48296
C         -0.00720         7.00233         0.17988
C          1.22063         7.70904         0.34749
C          2.46102         7.06160         0.07806
C          3.67038         7.78056         0.21629
C          4.95980         7.16157        -0.25421
C          6.18887         7.78663         0.35785
C          7.34900         7.06660         0.46141
C         -6.13462         8.94566         1.33006
C         -4.94219         9.56607         1.50991
C         -3.68199         8.92406         1.16022
C         -2.47708         9.63111         1.25868
C         -1.23870         9.01388         0.94217
C         -0.01695         9.70779         1.07303
C          1.21232         9.07604         0.78408
C          2.44562         9.76351         0.93507
C          3.66079         9.13253         0.65019
C          4.92412         9.82491         0.84934
C          6.11621         9.17690         0.74149
C        -11.13332        -0.65961         0.01599
C         -9.90700        -1.41065        -0.20646
C         -8.69535        -0.68189        -0.56517
C         -7.43747        -1.41924        -0.64613
C         -6.22137        -0.73870        -0.89030
C         -4.97410        -1.42258        -0.86283
C         -3.72737        -0.70623        -1.04832
C         -2.47697        -1.43327        -1.06750
C         -1.23544        -0.75254        -1.27821
C         -0.02752        -1.46462        -1.26664
C          1.26826        -0.76736        -1.42915
C          2.49782        -1.50309        -1.07646
C          3.71524        -0.73181        -0.76324
C          5.01709        -1.47479        -0.65504
C          6.27761        -0.71442        -0.65077
C          7.51381        -1.42889        -0.57756
C          8.72047        -0.69631        -0.39169
C         10.03501        -1.43148        -0.47681
C         11.17707        -0.66170         0.12674
C         -9.87674        -2.77032        -0.01969
C         -8.65040        -3.51955        -0.09910
C         -7.42151        -2.81600        -0.39315
C         -6.18835        -3.53486        -0.43125
C         -4.98554        -2.83074        -0.70643
C         -3.73515        -3.57006        -0.89754
C         -2.45851        -2.84228        -0.91078
C         -1.24044        -3.56092        -0.79117
C         -0.00825        -2.86282        -0.96530
C          1.22921        -3.56928        -0.81135
C          2.48974        -2.86918        -0.95212
C          3.74415        -3.70469        -1.16329
C          5.04687        -2.90131        -1.09754
C          6.34833        -3.63251        -0.93466
C          7.53716        -2.85717        -0.53623
C          8.73262        -3.54501        -0.13475
C          9.92037        -2.84843         0.01411
C         -8.63376        -4.87758         0.17824
C         -7.40240        -5.60781         0.28402
C         -6.16289        -4.92841        -0.06552
C         -4.95161        -5.64472         0.00880
C         -3.71792        -5.05672        -0.53675
C         -2.42875        -5.66748        -0.19502
C         -1.21907        -4.95511        -0.40318
C          0.02382        -5.59168        -0.09591
C          1.23944        -4.88487        -0.30376
C          2.51752        -5.46577         0.17457
C          3.80522        -4.94366        -0.30164
C          4.97995        -5.63843        -0.13234
C          6.29117        -5.15374        -0.77206
C          7.50073        -5.70037        -0.03579
C          8.64171        -4.96181         0.15858
C         -7.38810        -6.91494         0.73589
C         -6.11350        -7.56605         1.18260
C         -4.89193        -6.95857         0.53768
C         -3.67606        -7.66246         0.57296
C         -2.43310        -6.99430         0.29098
C         -1.19902        -7.67276         0.50578
C          0.02946        -6.96614         0.35780
C          1.23877        -7.65346         0.61954
C          2.50620        -6.91776         0.66204
C          3.77037        -7.65806         0.64341
C          4.97139        -7.00043         0.37502
C          6.22006        -7.72903         0.50859
C          7.43425        -7.07128         0.37322
C         -6.10240        -9.07054         1.11196
C         -4.94104        -9.75030         1.04742
C         -3.65868        -9.06599         0.91431
C         -2.45757        -9.73791         1.02305
C         -1.20033        -9.06054         0.86389
C          0.02034        -9.73629         1.01358
C          1.25006        -9.04754         0.89670
C          2.50520        -9.72203         1.07445
C          3.72652        -9.07231         0.92125
C          4.98116        -9.77271         1.04912
C          6.16751        -9.12174         0.87691
O          4.23491        -1.23384         0.55739
O          2.49111        -5.78158         1.60346
O         -6.99009         1.08617        -2.39791
O         -3.76119         4.69952        -2.04607
O          6.32137        -5.74301        -2.09376
H          5.70103        -5.21384        -2.64785
O         -0.70014         1.23019        -2.73913
O         10.35478        -1.54675        -1.92119
H          9.62080        -2.04780        -2.33817
O          5.04563         7.48469        -1.69797
H          4.25226         7.10031        -2.12870
O         -4.87405         6.14946         2.15514
H         -4.83284         6.88264         2.80590
O          3.60840        -4.21154        -2.52496
H          3.74226        -3.46270        -3.14465
O         -3.82355        -4.61415        -1.93062
O        -10.38156         1.78359        -2.09910
H         -9.54399         1.98903        -2.56783
O          5.87325        -3.13970        -2.26748
O         -6.01142        -7.24337         2.63001
H         -6.05520        -6.26660         2.71018
O         -7.89773         6.03677        -1.66811
H         -7.88952         5.19618        -2.17454
O          1.50775        -0.04273        -2.69918
H         12.11361        -1.20657         0.31900
H         11.98497         1.21693         0.71359
H         10.77128         3.35035         0.50129
H          9.52473         5.47531         0.51630
H          8.26528         7.55558         0.82782
H          7.05350         9.69884         0.98731
H          4.89191        10.87929         1.16072
H          2.43991        10.80759         1.28148
H         -0.02157        10.75368         1.41357
H         -2.48495        10.67373         1.60918
H         -4.90576        10.60064         1.88141
H         -7.07550         9.48008         1.53034
H         -8.30778         7.65633         0.44895
H         -9.49862         5.32961         0.67023
H        -10.71751         3.27986         0.43871
H        -12.13672         1.21649         0.03085
H        -12.01377        -1.21881         0.36807
H        -10.79989        -3.30510         0.25012
H         -9.57506        -5.39437         0.41791
H         -8.33940        -7.40710         0.99064
H         -7.05953        -9.60394         1.21247
H         -4.93494       -10.85078         1.07479
H         -2.45064       -10.81323         1.25652
H          0.02286       -10.81096         1.24823
H          2.49328       -10.79796         1.30398
H          4.96318       -10.84357         1.29887
H          7.11749        -9.66492         0.98923
H          8.36659        -7.59129         0.64279
H          9.52000        -5.44571         0.61333
H         10.83675        -3.38865         0.29579
