         732
 CSIRO Nanostructure Databank - Neutral Graphene Oxide Data Set
C         23.03053        24.57897         1.23599
C         21.85891        25.29922         1.43693
C         23.04559        27.39415         1.06843
C         21.86276        26.69286         1.35778
C         23.04997        28.84236         0.92824
C         21.88504        29.61485         1.14576
C         23.02523        31.64217         0.41714
C         21.88107        30.97946         0.93317
C         23.00740        33.06058         0.09958
C         21.82401        33.80411         0.23573
C         22.93852        35.83995        -0.52388
C         21.78893        35.15790        -0.05013
C         22.84007        37.26881        -0.82230
C         21.66399        37.98967        -0.77347
C         22.81008        40.16011        -0.67328
C         21.65355        39.41536        -0.69986
C         22.83875        41.56011        -0.17582
C         21.63398        42.39206        -0.18464
C         22.95389        44.40548         0.31865
C         21.70809        43.71518         0.13638
C         22.96512        45.82097         0.73524
C         21.72606        46.59734         0.86363
C         22.95865        48.69945         0.70995
C         21.75683        47.95359         0.95075
C         25.51351        23.09129         0.82931
C         25.48587        24.50967         0.78782
C         24.24536        25.24032         0.95354
C         25.48691        27.35539         0.60550
C         24.25560        26.66270         0.86433
C         25.49010        28.77510         0.45342
C         24.23479        29.51052         0.52574
C         25.40096        31.50439        -0.45096
C         24.19622        30.88891         0.21669
C         25.40703        33.00970        -0.47359
C         24.20740        33.73164        -0.35084
C         25.35835        35.80950        -1.28616
C         24.14818        35.13482        -0.66817
C         25.35670        37.28460        -1.01219
C         24.07961        37.97942        -1.13166
C         25.38128        40.20709        -0.84682
C         24.07903        39.51929        -1.03789
C         25.38881        41.60417        -0.63362
C         24.17178        42.30290        -0.15405
C         25.36471        44.51553        -0.26303
C         24.16477        43.77602        -0.01927
C         25.41713        45.91582        -0.14052
C         24.26960        46.62499         0.47614
C         25.30768        48.87723        -0.09915
C         24.13862        48.08946         0.37613
C         25.46019        50.27676         0.31561
C         27.94496        23.07262         0.67167
C         26.70035        22.39607         0.76961
C         27.94314        24.49302         0.55539
C         26.70657        25.20934         0.61044
C         27.94321        27.34546         0.33448
C         26.71257        26.64366         0.51338
C         27.95048        28.77471         0.28723
C         26.70406        29.46198         0.32041
C         27.93578        31.71182         0.16885
C         26.66259        30.94137         0.19023
C         27.95347        33.06130        -0.43517
C         26.67552        33.64860        -0.98804
C         27.86640        35.83703        -1.02334
C         26.67777        35.15170        -0.94927
C         27.87248        37.29040        -1.32982
C         26.56294        38.04726        -1.30784
C         27.82645        40.19954        -0.98475
C         26.58862        39.50969        -1.06117
C         27.79330        41.61678        -0.91671
C         26.58078        42.32696        -0.79128
C         27.79347        44.57024        -1.04952
C         26.45764        43.82404        -1.05224
C         27.83747        46.00297        -0.69016
C         26.60647        46.65309        -0.43190
C         27.87148        48.84740        -0.36216
C         26.59066        48.12813        -0.45560
C         27.86879        50.24149        -0.18647
C         26.64136        50.92446         0.16355
C         30.40126        20.21899         0.82908
C         29.23264        20.92594         0.87032
C         30.40279        23.07724         0.66374
C         29.19635        22.36583         0.73679
C         30.40332        24.48649         0.45343
C         29.17692        25.19969         0.40242
C         30.39393        27.33539         0.04948
C         29.18125        26.63126         0.25808
C         30.38875        28.77511        -0.01358
C         29.18913        29.48176         0.16936
C         30.44018        31.66131        -0.20578
C         29.25508        30.97804         0.43694
C         30.41306        33.03645        -0.43797
C         29.14595        33.75129        -0.54724
C         30.34777        35.88508        -0.99186
C         29.14927        35.16710        -0.87364
C         30.32523        37.32134        -1.19797
C         29.13717        38.03803        -1.20551
C         30.30968        40.18118        -1.07634
C         29.10946        39.49309        -1.11274
C         30.36066        41.61653        -0.78241
C         29.05606        42.35969        -0.75214
C         30.35621        44.54005        -0.79554
C         29.09005        43.81998        -1.03016
C         30.33798        45.94379        -0.64702
C         29.08031        46.67341        -0.58151
C         30.31805        48.80418        -0.22242
C         29.10031        48.11233        -0.38286
C         30.34132        50.22456        -0.13822
C         29.11584        50.95466        -0.16137
C         30.35441        53.04602        -0.00591
C         29.15951        52.37412        -0.12438
C         32.92708        18.72304         0.57888
C         32.85880        20.17540         0.53659
C         31.67419        20.87367         0.73014
C         32.93253        23.06803         0.57786
C         31.68466        22.35996         1.02474
C         32.88154        24.50159         0.36143
C         31.64173        25.20287         0.29139
C         32.86014        27.28619        -0.24338
C         31.64000        26.60286         0.02200
C         32.75286        28.66690        -0.86975
C         31.61782        29.49849        -0.30637
C         32.83449        31.61887        -0.88594
C         31.62232        30.88073        -0.44505
C         32.86694        33.08473        -0.68439
C         31.64021        33.77609        -0.65628
C         32.85186        35.88628        -0.85958
C         31.62283        35.19547        -0.83540
C         32.89283        37.32169        -1.21175
C         31.59761        38.03417        -1.47363
C         32.84419        40.24011        -1.14534
C         31.57318        39.55552        -1.61488
C         32.82507        41.66976        -1.07141
C         31.60487        42.38851        -0.98632
C         32.81518        44.54082        -0.93925
C         31.58237        43.80769        -0.87970
C         32.80663        45.97577        -0.73022
C         31.58173        46.63361        -0.50464
C         32.84505        48.80855        -0.16321
C         31.57679        48.02806         0.06605
C         32.83567        50.20401        -0.04422
C         31.58553        50.93607        -0.01119
C         32.83844        53.05899         0.29893
C         31.58844        52.34539         0.08215
C         32.88632        54.44320         0.55202
C         35.16602        18.80818        -0.37835
C         34.04489        18.05294         0.21530
C         35.27032        20.23912         0.01260
C         34.11559        20.89863         0.36950
C         35.37699        23.04686         0.29691
C         34.11452        22.35409         0.45459
C         35.33123        24.50474         0.50255
C         34.07763        25.22470         0.22427
C         35.37694        27.29138        -0.23282
C         34.08781        26.60539        -0.11409
C         35.41479        28.67554        -0.78351
C         34.11353        29.38680        -0.99869
C         35.39928        31.63110        -0.76859
C         34.13834        30.89218        -1.07015
C         35.35514        33.06122        -0.67370
C         34.10288        33.77506        -0.71177
C         35.32414        35.94171        -0.66296
C         34.09160        35.20421        -0.72416
C         35.31206        37.38884        -0.68179
C         34.11728        38.09700        -0.93979
C         35.27618        40.29190        -0.83162
C         34.06171        39.54387        -0.97833
C         35.29579        41.68094        -0.99427
C         34.05481        42.40140        -1.06952
C         35.27296        44.55025        -1.30010
C         34.01926        43.81805        -1.07396
C         35.28444        46.06627        -1.12371
C         34.04155        46.71981        -0.67802
C         35.31429        48.83501        -0.30289
C         34.07018        48.09758        -0.35129
C         35.31204        50.21029        -0.08855
C         34.07679        50.93279         0.03097
C         35.28608        53.00737         0.73045
C         34.05508        52.32334         0.28163
C         35.31291        54.47400         0.87858
C         34.09374        55.13332         0.78632
C         37.80672        16.07048        -0.83397
C         36.62267        16.71174        -1.01390
C         37.48689        19.11387        -1.27085
C         36.35716        18.17668        -1.04533
C         37.70405        20.32361        -0.71897
C         36.63257        20.89742         0.18060
C         37.84730        23.11653         0.00669
C         36.57785        22.40152         0.09492
C         37.87538        24.51811         0.29381
C         36.61240        25.25904         0.54413
C         37.77867        27.45200         0.36691
C         36.54247        26.68631         0.15257
C         37.85677        28.85225        -0.01457
C         36.74358        29.46222        -0.83076
C         37.81594        31.67435        -0.32234
C         36.60541        30.95269        -0.56453
C         37.79760        33.09952        -0.34330
C         36.56275        33.79528        -0.51612
C         37.77952        35.95669        -0.39263
C         36.54739        35.23669        -0.52175
C         37.74380        37.39085        -0.35052
C         36.54462        38.09342        -0.47373
C         37.77790        40.21139        -0.97823
C         36.52352        39.60718        -0.31744
C         37.81084        41.72023        -0.93128
C         36.55362        42.43223        -1.03698
C         37.77461        44.58710        -1.33140
C         36.53548        43.80766        -1.21101
C         37.77153        46.04132        -1.03781
C         36.58350        46.74283        -0.91236
C         37.77992        48.82802        -0.46373
C         36.58622        48.14448        -0.53795
C         37.84074        50.15583         0.24419
C         36.61406        50.99512        -0.16160
C         37.86077        53.01326         0.83378
C         36.57104        52.26059         0.66887
C         37.80323        54.48624         0.84121
C         36.59157        55.16274         0.99903
C         37.78279        57.22552         1.62227
C         36.62295        56.55160         1.40617
C         40.11725        14.88826         0.75257
C         40.24003        16.11358         0.08432
C         39.10112        16.72241        -0.62135
C         40.39048        18.83528        -0.61354
C         39.31636        17.97545        -1.11784
C         40.28931        20.31895        -0.61811
C         39.00125        21.09447        -1.02266
C         40.30280        23.14056        -0.22887
C         39.04422        22.46266        -0.35345
C         40.31423        24.53937         0.08888
C         39.07962        25.21745         0.28803
C         40.32918        27.41525         0.38950
C         39.08316        26.66958         0.54866
C         40.29444        28.83105         0.37175
C         39.04892        29.54174         0.12013
C         40.26005        31.69330         0.03671
C         39.05717        30.98004        -0.09049
C         40.25037        33.12518        -0.04670
C         39.02397        33.82922        -0.20643
C         40.26736        35.97238        -0.15525
C         39.01688        35.25953        -0.25111
C         40.29929        37.38399        -0.20952
C         39.02734        38.11209        -0.15977
C         40.32371        40.25811        -0.71441
C         39.05013        39.59528        -0.42508
C         40.30565        41.68273        -0.81995
C         39.02240        42.37835        -0.89410
C         40.23069        44.58680        -0.57647
C         39.06853        43.83573        -1.12474
C         40.24918        46.05746        -0.72607
C         39.04421        46.71718        -0.91331
C         40.32908        48.93183        -0.78504
C         39.02578        48.18753        -0.89722
C         40.33070        50.32880        -0.26878
C         39.14941        50.92220         0.07850
C         40.40386        53.11537         0.41408
C         39.16430        52.31732         0.57291
C         40.37437        54.49946         0.66314
C         39.07351        55.21247         0.73040
C         40.36412        57.24722         1.62580
C         39.07067        56.68993         1.16683
C         40.38415        58.42440         2.38768
C         42.49778        14.85311         1.21777
C         41.23213        14.27860         1.33521
C         42.66614        16.06956         0.53609
C         41.53109        16.73939         0.00671
C         42.84881        18.83590        -0.40109
C         41.66328        18.11672        -0.42916
C         42.85838        20.28027        -0.45216
C         41.60682        21.05038        -0.86365
C         42.77195        23.14864        -0.10920
C         41.56196        22.47228        -0.35524
C         42.77709        24.56404         0.13909
C         41.54417        25.25887         0.19864
C         42.77458        27.40161         0.42659
C         41.54499        26.69391         0.33626
C         42.75784        28.82718         0.50846
C         41.51815        29.54082         0.41765
C         42.69395        31.67093         0.45523
C         41.50514        30.97955         0.30739
C         42.74412        33.09841         0.10748
C         41.47513        33.86025         0.05731
C         42.74673        36.03346         0.36233
C         41.49448        35.24686         0.00348
C         42.74753        37.41248        -0.24466
C         41.54276        38.09968        -0.36256
C         42.75711        40.24079        -0.76154
C         41.55280        39.54317        -0.62905
C         42.82439        41.72811        -0.98636
C         41.50172        42.39654        -0.77310
C         42.78713        44.54529        -0.32062
C         41.50986        43.81141        -0.40913
C         42.71549        46.00663        -0.15036
C         41.49681        46.76831        -0.54862
C         42.84901        48.90499        -0.79544
C         41.55706        48.14368        -0.61108
C         42.81509        50.35612        -0.35999
C         41.61355        51.02699        -0.16803
C         42.84179        53.17249         0.15609
C         41.62026        52.44237         0.14712
C         42.80983        54.56313         0.44695
C         41.59000        55.23985         0.72376
C         42.80125        57.24424         1.61825
C         41.58219        56.60221         1.26849
C         42.79110        58.42451         2.37601
C         41.58974        59.00125         2.78050
C         45.21371        16.10464         0.92613
C         44.00700        16.64616         0.26546
C         45.42783        18.80477        -0.29433
C         44.10064        18.06133        -0.27695
C         45.29934        20.29415        -0.05693
C         44.04647        20.98818        -0.26595
C         45.23127        23.15388         0.02749
C         44.03739        22.44768        -0.14552
C         45.24545        24.56207         0.29241
C         44.01189        25.26806         0.31897
C         45.23652        27.39642         0.65662
C         44.01212        26.69191         0.47839
C         45.22586        28.82672         0.76650
C         43.98838        29.51517         0.69496
C         45.26238        31.72819         0.88238
C         43.92421        30.96995         0.85400
C         45.28590        33.13953         0.50687
C         44.04297        33.83388         0.14603
C         45.25284        35.95803         0.03369
C         44.04969        35.30600         0.14229
C         45.30599        37.39853        -0.20156
C         44.02299        38.03949        -0.58286
C         45.29070        40.30475        -0.57148
C         44.03891        39.55593        -0.84176
C         45.26076        41.65459        -0.33585
C         43.92768        42.34992        -0.09530
C         45.23637        44.56844        -0.09695
C         43.97437        43.86363        -0.21529
C         45.27623        45.96965        -0.08192
C         44.03102        46.74756        -0.03174
C         45.29501        48.86476        -0.32373
C         44.08172        48.18282        -0.33078
C         45.27783        50.31255        -0.41104
C         44.08210        51.05419        -0.32665
C         45.31282        53.20360        -0.07473
C         44.09646        52.49338        -0.11972
C         45.35907        54.58993         0.32367
C         44.07791        55.31071         0.43382
C         45.36307        57.16229         1.62810
C         44.08248        56.71704         1.09531
C         46.35824        16.82479         1.04747
C         47.68827        18.89450         0.71184
C         46.51141        18.17543         0.56672
C         47.72222        20.29290         0.31090
C         46.48325        20.98895         0.09453
C         47.75147        23.14983         0.30282
C         46.53680        22.45348        -0.24701
C         47.70393        24.50985         0.61839
C         46.47737        25.25039         0.56606
C         47.68144        27.39691         0.98110
C         46.47188        26.67489         0.76018
C         47.71963        28.81389         0.92541
C         46.48022        29.54194         0.84044
C         47.73014        31.66743         0.67327
C         46.50651        30.95403         0.78706
C         47.73137        33.08610         0.54714
C         46.49412        33.81009         0.40591
C         47.71757        35.90391         0.08385
C         46.51082        35.22979         0.13003
C         47.80807        37.36137        -0.28905
C         46.48391        38.07559        -0.29909
C         47.75740        40.22797         0.01731
C         46.59837        39.53644        -0.70379
C         47.72975        41.68760         0.02498
C         46.48403        42.41571        -0.13312
C         47.68387        44.57066         0.41527
C         46.45986        43.80352        -0.02192
C         47.72136        45.99609        -0.06079
C         46.52830        46.70764        -0.12363
C         47.78217        48.86404        -0.07355
C         46.53967        48.14586        -0.20563
C         47.80260        50.25303        -0.22289
C         46.56697        50.99575        -0.54789
C         47.87377        53.22382        -0.20846
C         46.56644        52.52331        -0.43449
C         47.87561        54.68904         0.24741
C         46.55100        55.28867         0.56876
C         46.52225        56.53895         1.26525
C         50.07912        18.98741         1.19599
C         48.89136        18.36936         1.35237
C         50.19223        20.16252         0.24454
C         48.93595        20.99135         0.30471
C         50.21712        23.09345         0.61275
C         48.96855        22.41512         0.38443
C         50.23604        24.47589         0.91383
C         48.93341        25.15311         1.12458
C         50.20761        27.39743         1.41364
C         48.90494        26.65983         1.34160
C         50.21418        28.83803         1.10048
C         48.97632        29.52508         0.95419
C         50.18302        31.67587         0.73243
C         48.97744        30.95709         0.76458
C         50.19766        33.09713         0.55406
C         48.95338        33.80436         0.48834
C         50.17835        35.94057         0.35116
C         48.94832        35.21637         0.32750
C         50.18629        37.36909         0.38207
C         48.83735        38.03652         0.63520
C         50.13063        40.18604         0.94465
C         48.84954        39.53550         0.46585
C         50.07410        41.68212         0.74349
C         48.90541        42.37496         0.27859
C         50.17650        44.47915         0.23648
C         48.97620        43.82847         0.24286
C         50.28870        45.93512         0.03553
C         49.01051        46.70479        -0.14875
C         50.25271        48.76029         0.42529
C         49.03802        48.14873         0.11556
C         50.21538        50.21725         0.70338
C         48.99297        50.98027         0.23324
C         50.29254        53.09400         0.21549
C         49.08683        52.44514         0.03675
C         50.29666        54.47481         0.61493
C         49.13841        55.17576         0.80602
C         52.67823        20.27152         0.32719
C         51.46359        20.95346         0.40565
C         52.69284        23.07207         0.61144
C         51.45516        22.36266         0.55107
C         52.69191        24.49502         0.76760
C         51.46779        25.17277         0.99791
C         52.74424        27.37581         0.93398
C         51.51660        26.62617         1.28989
C         52.70367        28.80739         0.89765
C         51.46466        29.50281         1.02757
C         52.74016        31.71924         0.76788
C         51.45094        30.97572         0.99594
C         52.64798        33.04639         0.04343
C         51.40156        33.81320         0.36370
C         52.63096        35.95862         0.09379
C         51.41106        35.22705         0.28587
C         52.61792        37.36720         0.01654
C         51.37440        38.06823         0.22242
C         52.70226        40.20590         0.17587
C         51.31487        39.57541         0.06831
C         52.99516        41.38348         0.79465
C         51.15935        42.44856         1.03412
C         52.72277        44.43406         0.61379
C         51.45434        43.68629         0.24179
C         52.70617        45.82041         0.70246
C         51.51647        46.61993         0.48244
C         52.76264        48.73228         0.81491
C         51.49727        48.01919         0.58224
C         52.78415        50.18722         0.81008
C         51.50915        51.00431         0.95083
C         52.83684        53.01620         0.27245
C         51.55381        52.25812         0.04617
C         53.89043        20.95932         0.37046
C         55.17726        23.09469         0.49043
C         53.92340        22.35797         0.49503
C         55.15426        24.51913         0.60247
C         53.94333        25.21728         0.72817
C         55.16624        27.38080         0.45323
C         53.93873        26.66786         0.73285
C         55.12790        28.80542         0.31231
C         53.92481        29.52296         0.57715
C         55.13367        31.63894         0.15771
C         53.96203        30.93986         0.50130
C         55.20169        33.13649         0.35533
C         53.90254        33.85701         0.14014
C         55.11111        35.95862        -0.27118
C         53.88502        35.23302         0.01041
C         55.04038        37.37573        -0.48243
C         53.84767        38.06335        -0.30582
C         55.14419        40.23218        -0.42935
C         53.79897        39.55304        -0.63771
C         55.21550        41.61984        -0.10117
C         54.06566        42.28570         0.41857
C         55.21142        44.44365         0.32875
C         53.98548        43.69383         0.52864
C         55.23070        45.84431         0.53087
C         53.98611        46.52146         1.09587
C         55.25022        48.69639         1.01355
C         53.94775        48.01471         0.87556
C         55.25954        50.22573         0.99212
C         53.96054        50.90649         0.82650
C         53.94575        52.35512         0.65471
C         57.60636        23.14904         0.10596
C         56.40227        22.43947         0.29027
C         57.66650        24.52609         0.21987
C         56.46449        25.25947         0.76337
C         57.57844        27.38839        -0.03584
C         56.39080        26.69965         0.33097
C         57.53130        28.79270        -0.26545
C         56.31452        29.50664        -0.05823
C         57.50017        31.63506        -0.57765
C         56.31217        30.93251        -0.14843
C         57.48475        33.08546        -0.67890
C         56.35012        33.81779        -0.34695
C         57.52979        35.94653        -0.84723
C         56.30875        35.24201        -0.50301
C         57.53071        37.35802        -0.98852
C         56.21813        38.08747        -1.13347
C         57.55784        40.23372        -0.82070
C         56.31168        39.54430        -0.73923
C         57.60095        41.64349        -0.62974
C         56.41951        42.34412        -0.26176
C         57.63375        44.47900        -0.19765
C         56.41870        43.75973        -0.03559
C         57.64859        45.88581         0.01276
C         56.44216        46.56439         0.38617
C         57.67046        48.70771         0.43879
C         56.48544        47.98901         0.61367
C         57.64471        50.15501         0.40990
C         56.50791        50.87248         0.57277
C         60.11949        24.61155        -0.18347
C         58.88706        25.26798        -0.03897
C         60.02031        27.41539        -0.50126
C         58.83131        26.69138        -0.18268
C         59.95898        28.83481        -0.71778
C         58.71475        29.50421        -0.65568
C         59.79425        31.56920        -1.64332
C         58.64655        30.91863        -0.90426
C         59.81651        33.07306        -1.53549
C         58.69573        33.78157        -1.06268
C         60.05964        35.88557        -1.08656
C         58.72079        35.20548        -1.01722
C         59.98776        37.37958        -1.27690
C         58.75641        38.07674        -1.14859
C         59.99169        40.22541        -1.26079
C         58.76824        39.51510        -1.11428
C         60.01442        41.67404        -1.13403
C         58.82653        42.36980        -0.78399
C         60.05798        44.49959        -0.71385
C         58.84101        43.78351        -0.56940
C         60.08857        45.92893        -0.45580
C         58.88174        46.60943        -0.10725
C         60.13789        48.70047         0.06380
C         58.90780        48.01578         0.12841
C         61.28689        25.33013        -0.47081
C         61.24304        26.70446        -0.63599
C         61.15998        29.62869        -0.90726
C         61.10879        30.93038        -1.26763
C         60.90045        33.80116        -2.13015
C         60.99595        35.15518        -2.01423
C         61.17578        38.09909        -1.44647
C         61.18097        39.49052        -1.46307
C         61.20100        42.42296        -1.30683
C         61.21929        43.79135        -1.10417
C         61.28979        46.65920        -0.52767
C         61.31234        48.02566        -0.25721
O         49.84721        46.32130        -1.32801
O         33.37263        31.32773        -2.23907
O         46.90926        39.55224        -2.09227
O         35.84154        52.22116         1.91569
O         32.34619        37.47352        -2.60934
O         44.16437        16.90792        -1.18706
O         48.73022        25.73814         2.45965
O         29.71498        42.00161         0.50549
O         35.93748        24.91738         1.80215
O         49.20676        50.60334         1.69540
O         44.09097        38.58792        -1.94074
O         24.01394        38.84239        -2.33346
O         39.65955        48.81802        -2.09882
O         34.81337        28.75766        -2.13300
O         38.63820        52.44790         1.97003
O         35.20416        18.58584        -1.86478
O         52.16182        41.87599         1.82039
O         23.93504        46.09888         1.79720
O         40.61022        44.11876         0.74869
O         52.21141        31.64138         2.10565
O         38.49078        18.54912        -2.09697
O         23.63392        41.65659         1.06001
O         25.66860        48.64027        -1.49907
O         46.59038        51.86430        -1.73998
O         28.49713        44.24310        -2.31161
O         38.99049        39.09914         0.96572
O         38.31496        27.13111         1.70430
O         38.65304        44.22932        -2.46457
O         44.49152        31.46949         2.11720
O         50.98251        27.03672         2.59615
O         43.51889        33.28086        -1.16605
O         27.06836        31.67821         1.39491
O         48.03272        54.31434        -1.16322
O         35.18897        45.45492        -2.46220
O         39.04635        56.31376        -0.24286
O         27.19732        37.61998        -2.61401
O         44.05002        56.53927        -0.35243
O         55.38059        49.47741         2.25465
O         43.20232        46.44369         1.17443
O         40.10716        19.63798         0.64403
O         26.67982        33.32494        -2.44967
H         26.09562        34.01605        -2.87049
O         41.69742        21.13187        -2.32419
H         42.44466        21.72541        -2.54850
O         50.35615        39.83181         2.32525
H         51.07325        40.42075         2.65764
O         50.25737        19.58849        -1.10350
H         49.39110        19.16363        -1.28379
O         43.20063        41.93815        -2.37925
H         43.92723        41.31548        -2.60292
O         48.46022        37.75888         2.00589
H         49.03599        38.32040         2.57523
O         25.37205        31.05056        -1.84004
H         25.87955        31.71767        -2.37357
O         54.08754        46.36849         2.55745
H         54.72768        47.03788         2.88381
O         60.65172        35.72094         0.26890
H         60.68692        34.75649         0.44871
O         37.24154        29.36694        -2.19941
H         36.45148        29.41263        -2.78914
O         53.53433        39.64588        -2.07205
H         52.54746        39.69346        -2.17232
O         37.73968        49.84774         1.65750
H         37.88586        50.69168         2.15534
O         52.54321        32.65059        -1.37871
H         52.46897        33.47128        -1.91164
O         29.52336        31.08909         1.87093
H         28.64039        31.16477         2.30737
O         25.95849        43.88928        -2.42575
H         26.74851        43.85592        -3.01514
O         31.73361        22.42687         2.50513
H         30.91538        21.99958         2.83826
O         31.51600        39.85066        -3.04750
H         31.99557        39.11436        -3.49813
O         51.66942        43.21816        -1.13821
H         51.45306        43.96152        -1.74149
O         55.91117        38.07928        -2.57034
H         55.07985        38.60685        -2.68141
O         37.70438        39.83663        -2.38167
H         38.28417        40.43336        -2.90013
O         25.22979        35.63338        -2.76653
H         25.82497        36.32146        -3.16114
O         55.49900        33.29191         1.79705
H         55.49272        34.25228         1.99746
O         59.58759        31.26861        -3.07244
H         59.58772        30.29196        -3.16393
O         46.71228        22.48622        -1.71601
H         46.19879        21.73906        -2.09279
O         50.94245        39.80966        -1.32834
H         50.11300        39.31342        -1.51694
O         48.34932        37.43948        -1.63629
H         47.85120        38.17929        -2.10960
O         43.53692        42.04722         1.27075
H         44.11326        42.55521         1.87888
O         37.03845        20.58140         1.55574
H         36.52503        21.15610         2.16265
O         32.29896        28.40584        -2.23338
H         33.10577        28.26628        -2.78116
O         42.66022        36.21746         1.82570
H         41.84957        36.73883         2.01131
O         47.54526        44.69536         1.89256
H         46.67648        45.11944         2.06641
O         56.69343        25.31552         2.22886
H         56.71658        24.38941         2.55202
O         36.79408        51.43922        -1.52967
H         36.87235        50.64766        -2.10424
O         42.97741        48.95062        -2.27021
H         42.13075        49.29278        -2.63319
O         36.51058        39.91529         1.09808
H         37.35925        39.57817         1.48226
O         39.02892        21.35531        -2.43955
H         39.02062        20.48754        -2.90092
O         51.50723        51.45792         2.32050
H         50.58289        51.36828         2.65404
O         45.92666        18.71766        -1.67248
H         45.62195        17.84252        -2.01265
O         31.54551        47.80651         1.53907
H         31.62877        48.68618         1.96659
O         51.54544        51.77161        -1.32334
H         51.49383        52.54325        -1.92534
H         22.99550        23.48470         1.31285
H         20.92280        24.76904         1.66010
H         20.91946        27.23109         1.51684
H         20.96193        29.13796         1.50018
H         20.95845        31.53666         1.13993
H         20.89890        33.32055         0.57368
H         20.84362        35.69993         0.08010
H         20.70073        37.47967        -0.63763
H         20.68853        39.90022        -0.49492
H         20.66561        41.94466        -0.44724
H         20.77462        44.29174         0.18852
H         20.75999        46.07660         0.90592
H         22.87557        49.79442         0.67032
H         20.82261        48.51318         1.09846
H         24.57869        22.52335         0.92010
H         24.60439        50.80425         0.75926
H         26.66690        21.30025         0.81767
H         26.69661        51.98135         0.45705
H         30.35371        19.12102         0.82119
H         28.28991        20.36763         0.93308
H         30.34388        54.14351         0.01409
H         28.23166        52.95543        -0.20260
H         32.05908        18.15964         0.94930
H         31.96042        55.03305         0.54608
H         34.08283        16.95479         0.24401
H         34.04696        56.22677         0.88515
H         37.78307        14.97000        -0.78756
H         35.72430        16.08805        -1.14267
H         37.74484        58.20952         2.10939
H         35.67735        57.02565         1.70341
H         39.13363        14.40499         0.82948
H         39.44433        58.91455         2.67250
H         43.36336        14.33483         1.65177
H         41.11590        13.32358         1.86574
H         43.73405        58.91966         2.64158
H         41.59239        59.92681         3.37134
H         45.17598        15.08976         1.34620
H         45.40434        58.00564         2.33017
H         47.21013        16.36151         1.56635
H         47.47187        56.96575         1.61454
H         50.98759        18.58386         1.66738
H         48.81954        17.46264         1.97029
H         51.24358        54.91733         0.95464
H         49.17672        56.13776         1.33475
H         52.67899        19.18019         0.20064
H         52.88391        54.09385         0.05755
H         54.82091        20.38255         0.29161
H         54.88213        52.91221         0.79885
H         58.49549        22.57484        -0.18960
H         56.43449        21.34809         0.18160
H         58.55795        50.69171         0.12176
H         56.52295        51.95435         0.38267
H         60.18779        23.52308        -0.05604
H         60.19368        49.77445         0.28184
H         62.24130        24.79565        -0.57439
H         62.16800        27.23995        -0.88622
H         62.13815        29.16820        -0.70880
H         62.03772        31.50699        -1.38802
H         61.63796        33.24712        -2.72907
H         61.82745        35.69574        -2.48835
H         62.12922        37.56085        -1.53894
H         62.14079        40.00946        -1.58379
H         62.13375        41.92570        -1.60375
H         62.16797        44.32444        -1.24874
H         62.23235        46.15895        -0.78434
H         62.26317        48.57458        -0.29919
