         349
 CSIRO Nanostructure Databank - Neutral Graphene Oxide Data Set
C          1.52508         1.87899        -0.75444
C          1.37895         3.27747        -0.43705
C          2.67559         1.40977        -1.29807
C          2.48503         4.10732        -0.38165
C          1.25790         6.25743        -0.29407
C          1.23447         7.67222        -0.14780
C          2.40207         5.52491        -0.07486
C          2.37196         8.40437         0.14392
C          1.14064        10.61387        -0.12326
C          1.10569        11.96813        -0.24411
C          2.36899         9.86954         0.08253
C          2.33425        12.74606        -0.43787
C          1.18568        14.98285        -0.57057
C          1.22595        16.36330        -0.71398
C          2.36619        14.22962        -0.41127
C          2.46150        17.04721        -0.72758
C          2.50600        18.49827        -0.83611
C          3.75511         2.40353        -1.67275
C          3.79547         3.54464        -0.67744
C          5.08072         1.79103        -1.97381
C          4.96427         4.07664        -0.16730
C          3.60982         6.20226         0.44609
C          3.62503         7.69828         0.41341
C          4.90882         5.40879         0.55081
C          4.78374         8.39838         0.63694
C          3.54097        10.57651         0.30034
C          3.64169        11.99171        -0.09166
C          4.73480         9.86969         0.80507
C          4.82072        12.80865         0.24859
C          3.61840        14.89927        -0.35291
C          3.65003        16.31009        -0.54435
C          4.83359        14.16072        -0.01452
C          4.93763        17.03928        -0.60319
C          3.65809        19.21126        -0.79727
C          4.96831        18.54124        -0.73677
C          6.26068         2.34041        -1.49933
C          6.22016         3.41760        -0.51895
C          7.53373         1.79710        -1.84676
C          7.43319         3.70837         0.09615
C          6.13792         6.24697         0.67353
C          6.03806         7.69532         1.09298
C          7.36292         5.69794         0.93255
C          7.33569         8.43370         0.77928
C          5.98897        10.64167         1.07208
C          5.97429        12.14673         0.92295
C          7.29901         9.91948         0.84871
C          7.26867        12.88007         1.09419
C          6.13105        14.90177         0.03407
C          6.08870        16.39513         0.09427
C          7.38318        14.26381         0.52712
C          7.32302        17.18609         0.39287
C          6.19357        19.27426        -0.35477
C          7.36388        18.63041         0.02758
C          8.74832         2.34218        -1.37565
C          8.72837         3.43551        -0.42706
C          9.99358         1.79110        -1.72318
C          9.90490         4.15238        -0.04400
C          8.64771         6.34801         0.78605
C          8.66084         7.72144         0.88162
C          9.89382         5.50297         0.67390
C          9.89996         8.49008         0.89067
C          8.57848        10.61109         1.19452
C          8.54562        12.10484         1.31860
C          9.85282         9.86889         0.98981
C          9.82415        12.88838         1.23689
C          8.56417        15.10375         0.87951
C          8.59598        16.46056         0.65167
C          9.81913        14.38296         1.15766
C          9.84108        17.20931         0.67058
C          8.60551        19.30576         0.13760
C          9.82820        18.63360         0.40706
C         11.18204         2.36808        -1.23855
C         11.14779         3.62408        -0.50164
C         12.40236         1.69978        -1.49318
C         12.40732         4.27627        -0.28925
C         11.19706         6.28320         0.76433
C         11.18855         7.78961         0.76314
C         12.53919         5.57713         0.49788
C         12.37311         8.49893         0.61740
C         11.06991        10.66460         0.70415
C         11.02119        12.16286         0.70175
C         12.42596         9.99590         0.90166
C         12.28883        12.96554         0.60781
C         11.09833        15.09897         0.93465
C         11.06939        16.54480         0.82251
C         12.27224        14.40034         0.97974
C         12.31771        17.24120         0.70305
C         11.05663        19.32642         0.34863
C         12.30556        18.66190         0.46994
C         13.63195         2.28580        -1.14916
C         13.58683         3.63286        -0.63786
C         14.87242         1.61200        -1.26988
C         14.86706         4.36306        -0.65822
C         13.63326         6.49577        -0.01772
C         13.60978         7.84170         0.21269
C         14.88092         5.83773        -0.49240
C         14.89721         8.62349        -0.13746
C         13.54890        10.72837         0.10180
C         13.58313        12.24478         0.37626
C         14.87910        10.05601         0.34666
C         14.81827        12.93720         0.79090
C         13.56782        15.10711         1.23126
C         13.54940        16.54666         0.78827
C         14.81892        14.33530         0.86523
C         14.77170        17.21783         0.62071
C         13.53899        19.33982         0.35373
C         14.76994        18.64419         0.40860
C         16.09491         2.20822        -0.83545
C         16.11359         3.59039        -0.49650
C         17.28702         1.46106        -0.65098
C         17.26279         4.19217         0.03351
C         16.24624         6.49089        -0.22438
C         16.07762         7.84898         0.36006
C         17.16551         5.58798         0.62030
C         17.18821         8.48546         1.12716
C         16.00725        10.69060         0.77111
C         16.03748        12.14469         1.19962
C         17.28824         9.97480         0.81772
C         17.24183        12.85630         0.67166
C         16.02008        15.07473         0.78566
C         16.02104        16.48612         0.63746
C         17.32078        14.33942         0.92809
C         17.24175        17.16536         0.37088
C         16.00831        19.30933         0.26189
C         17.22998        18.59551         0.21212
C         18.43718         2.06472        -0.13837
C         18.43920         3.43851         0.18700
C         19.64810         1.22490         0.18146
C         19.66653         4.07692         0.79132
C         18.50888         6.27231         0.72147
C         18.50847         7.72818         0.96582
C         19.69004         5.58457         0.60291
C         19.77956         8.47001         0.63664
C         18.48148        10.63732         0.66631
C         18.55965        12.14731         0.76192
C         19.74236         9.93836         0.43108
C         19.56896        12.77233        -0.21019
C         18.50191        15.02040         0.27585
C         18.47282        16.43513         0.15763
C         19.65285        14.28905        -0.06946
C         19.64947        17.11994        -0.25802
C         18.44519        19.27279        -0.02597
C         19.65299        18.57668        -0.27704
C         20.94311         2.01075         0.20486
C         20.94589         3.36182         0.39709
C         22.21995         1.19387         0.18578
C         22.19055         4.12032         0.33880
C         20.94331         6.28473         0.38450
C         20.95390         7.68736         0.21186
C         22.16108         5.54914         0.23010
C         22.11371         8.36976        -0.24389
C         20.87175        10.58825         0.00570
C         20.90856        12.07702        -0.03615
C         21.93848         9.80632        -0.74269
C         22.13594        12.80963        -0.44633
C         20.82269        14.97156        -0.48098
C         20.81922        16.37846        -0.56374
C         21.99744        14.19374        -1.05148
C         22.03688        17.07188        -1.04425
C         20.84115        19.28384        -0.46963
C         22.05599        18.63030        -0.93018
C         23.47830         1.99958         0.38203
C         23.42307         3.43831         0.32691
C         24.67883         1.35539         0.55863
C         24.65134         4.17642         0.30679
C         23.36591         6.26344        -0.03386
C         23.30906         7.65112        -0.37232
C         24.62451         5.57786         0.08111
C         24.56762         8.34062        -0.73144
C         23.25722        10.57114        -0.94389
C         23.35449        12.05061        -0.82020
C         24.54507         9.82097        -0.93746
C         24.50935        12.72527        -1.12643
C         23.33926        14.91618        -1.03306
C         23.34108        16.36967        -1.04072
C         24.50872        14.18921        -1.13149
C         24.51924        17.09835        -1.08143
C         23.35050        19.25091        -0.73430
C         24.54499        18.53567        -0.84268
C         25.91922         2.07711         0.66560
C         25.89512         3.50306         0.48746
C         27.13521         1.43282         0.91081
C         27.10862         4.23810         0.51009
C         25.85652         6.29407         0.07550
C         25.87023         7.70430        -0.37125
C         27.06588         5.64806         0.31126
C         26.96665         8.64183         0.13404
C         25.82951        10.55821        -0.91622
C         25.80412        11.97730        -1.46900
C         27.00439         9.92232        -0.67261
C         27.01442        12.70238        -0.89101
C         25.81460        14.88601        -1.48760
C         25.81470        16.40010        -1.25809
C         27.00577        14.20570        -0.81293
C         27.07413        17.09594        -0.81235
C         25.76408        19.18896        -0.51683
C         26.99072        18.50132        -0.33749
C         28.35874         2.15305         0.95645
C         28.35808         3.56103         0.72442
C         29.60508         1.50081         1.19718
C         29.59293         4.26341         0.66396
C         28.32274         6.43547         0.41967
C         28.31216         7.93047         0.32904
C         29.60626         5.68347         0.25086
C         29.59608         8.68370         0.05103
C         28.28479        10.53109        -1.20866
C         28.31228        12.01936        -0.89958
C         29.56020         9.88353        -0.75932
C         29.49524        12.71118        -0.64704
C         28.30148        14.89376        -0.64940
C         28.29980        16.31984        -0.48954
C         29.47819        14.15457        -0.44970
C         29.42613        16.97578        -0.02491
C         28.10501        19.12141         0.18366
C         29.34819        18.37217         0.55042
C         30.78791         2.20750         1.19831
C         30.80763         3.60373         0.91418
C         32.04104         4.36455         0.97689
C         30.91302         6.43701         0.24627
C         30.92845         7.94892         0.18277
C         32.09645         5.69781         0.72759
C         32.11658         8.58448        -0.44316
C         30.80936        10.59518        -1.19540
C         30.77017        12.02619        -0.64329
C         32.08154         9.82883        -0.94054
C         31.92134        12.71571        -0.32869
C         30.71358        14.83903        -0.14798
C         30.69129        16.28363         0.06197
C         31.89034        14.10138        -0.04747
C         31.84687        17.04227         0.21922
C         30.62146        19.14636         0.32907
C         31.80026        18.47641         0.25351
O          7.10670        14.34748        -0.92460
O          7.31171         9.24313        -0.45113
O          8.51121        11.26311         2.50967
O         26.66743        13.39614         0.36155
O         28.34609         7.27546         1.64005
O         10.80131        11.42679        -0.54128
O         19.42828         8.11832         2.04352
O          6.32683        12.80907         2.19682
O         23.86729        10.14646        -2.22926
O         30.44179         8.71888         1.30831
O         10.60585         5.63610         1.95592
O         14.82836         5.29420        -1.84677
O         30.32644         5.90718        -1.00565
O          5.17255        10.22900         2.19734
O          4.04043         5.56390         1.72386
O         12.90197        12.93772        -0.74152
O          6.30381        16.91400         1.44345
O          9.97797        13.65946         2.46234
O         25.44509         7.75822        -1.76859
O          3.20139        12.20156        -1.47836
O          7.40711         4.36229         1.32127
O         26.69940        17.03810        -2.24883
O          5.23317        17.62840        -1.90239
O         21.78241        12.69795         0.97195
O         21.85721        17.90102        -2.20897
O         12.76140        10.16334         2.29846
H         12.26342         9.51196         2.83535
O         16.84977         8.42558         2.54872
H         17.70006         8.50902         3.03751
O         21.65540        13.95800        -2.45732
H         21.72819        14.81175        -2.93630
O         25.94356        11.89630        -2.91008
H         25.16707        11.37805        -3.23018
O         21.35296         9.66204        -2.07119
H         22.10191         9.51392        -2.69566
O         17.57601        14.47334         2.38749
H         18.38356        13.91520         2.55666
O         16.07515        12.13718         2.67284
H         16.23569        13.07350         2.94604
O         25.96760        14.67343        -2.91323
H         26.42143        15.47168        -3.27371
O         19.53973         3.88416         2.24689
H         20.28450         4.35967         2.67311
O          3.29925         2.99916        -2.95139
H          2.39617         3.35024        -2.79342
O         16.93976         6.68200        -1.48602
H         16.34253         7.22838        -2.05196
O         15.00940         8.62327        -1.59777
H         14.33839         9.27577        -1.92539
O         16.57764         5.46409         1.93103
H         17.18330         4.92395         2.48239
O         26.51016         9.05597         1.45137
H         26.99783         8.50872         2.11256
O         19.10750        12.50585        -1.55138
H         19.77632        12.86687        -2.17758
O         29.26448        18.17584         2.01850
H         30.09657        17.73448         2.29429
O         19.10611        12.36540         2.11733
H         18.54962        11.83697         2.73239
O         19.72757         0.11512        -0.73520
H         19.51337         0.44991        -1.63090
O         13.07552         5.17313         1.79338
H         12.29957         4.99105         2.37548
O         13.24066        10.53429        -1.29587
H         12.67738        11.30261        -1.57268
O          5.96744         7.63020         2.54731
H          5.19965         7.05519         2.77297
O         13.67795        15.16393         2.70949
H         12.88433        15.63192         3.04822
O         22.36521         0.43995        -1.02174
H         21.53126        -0.07641        -1.12885
O         28.19109        10.37839        -2.67439
H         27.41453        10.92514        -2.98284
O         30.81451        10.78485        -2.64615
H         29.88125        10.69688        -2.97234
H          0.68093         1.20290        -0.55480
H          0.38815         3.65414        -0.14725
H          2.78720         0.35167        -1.57552
H          0.34501         5.75582        -0.64560
H          0.28491         8.18324        -0.35349
H          0.18529        10.07621        -0.04866
H          0.13740        12.48796        -0.21714
H          0.21462        14.47042        -0.61105
H          0.29245        16.92824        -0.84715
H          1.54229        19.02622        -0.89540
H          5.11284         0.94597        -2.67755
H          3.62992        20.31114        -0.78989
H          7.57108         0.93621        -2.52984
H          6.21029        20.36323        -0.51720
H         10.04263         0.89726        -2.36132
H          8.64048        20.38129        -0.09256
H         12.37732         0.70942        -1.97060
H         11.04801        20.40903         0.15237
H         14.87831         0.56514        -1.60766
H         13.54458        20.42781         0.19108
H         17.28902         0.38155        -0.86197
H         16.02223        20.40074         0.12490
H         19.50337         0.77321         1.20489
H         18.44361        20.37085        -0.08940
H         22.12514         0.45914         1.05040
H         20.86819        20.36445        -0.26662
H         24.70542         0.25659         0.60022
H         23.37709        20.27897        -0.34409
H         27.15136         0.34286         1.05970
H         25.72247        20.25774        -0.25886
H         29.60963         0.41763         1.38640
H         28.03887        20.17666         0.49047
H         31.73835         1.69210         1.39897
H         32.94866         3.83694         1.30650
H         33.03080         6.25263         0.89643
H         33.06166         8.01962        -0.43559
H         32.99543        10.25575        -1.38022
H         32.88839        12.19395        -0.30719
H         32.83471        14.59709         0.21538
H         32.83403        16.56097         0.21987
H         30.59443        20.24489         0.36653
H         32.74999        19.02808         0.19534
