         324
 CSIRO Nanostructure Databank - Neutral Graphene Oxide Data Set
C          2.07064         2.30910        -2.70875
C          2.08986         3.71265        -2.77275
C          3.07362         1.66461        -2.01554
C          3.07253         4.43241        -2.09517
C          1.49129         6.89162        -0.77719
C          1.26522         7.65330         0.37949
C          2.78198         6.44296        -1.03961
C          2.37490         8.11364         1.08522
C          1.15290        11.05155         1.73967
C          1.22656        12.33638         1.20762
C          2.29841        10.25100         1.76183
C          2.45581        12.85596         0.76102
C          1.27756        14.78598        -0.45367
C          1.28952        16.03711        -0.95430
C          2.49596        14.14393         0.05925
C          2.55181        16.87071        -0.92414
C          2.65025        17.93883        -1.99671
C          4.11533         2.39903        -1.37648
C          4.11022         3.83701        -1.32674
C          5.21355         1.67743        -0.87543
C          5.16802         4.54967        -0.60592
C          3.88726         6.71020        -0.19187
C          3.70103         7.77838         0.73632
C          5.11215         5.93009        -0.17263
C          4.86337         8.53033         1.19677
C          3.57704        10.72617         1.37824
C          3.64819        12.09338         0.95032
C          4.79205         9.92758         1.44367
C          4.93631        12.68626         0.66109
C          3.70028        14.73413        -0.20605
C          3.76100        15.93481        -1.11830
C          4.95010        14.10595         0.24622
C          5.07499        16.67617        -1.11997
C          3.83137        18.51874        -2.25821
C          5.05831        18.14818        -1.45616
C          6.34308         2.35203        -0.39847
C          6.31150         3.78314        -0.21339
C          7.50777         1.59658        -0.11535
C          7.45908         4.39533         0.38903
C          6.20629         6.50851         0.56137
C          6.10739         7.83047         1.10517
C          7.42773         5.76796         0.74608
C          7.32380         8.47672         1.61988
C          6.02248        10.76404         1.77655
C          6.12117        12.02833         0.94304
C          7.31913         9.96831         1.86051
C          7.41906        12.59825         0.62551
C          6.24620        14.72573        -0.15424
C          6.25972        16.01851        -0.89522
C          7.45414        13.85259        -0.18462
C          7.53035        16.64921        -1.14676
C          6.37433        18.63162        -1.99828
C          7.53876        17.96779        -1.74691
C          8.67162         2.19976         0.36202
C          8.63813         3.61234         0.65981
C          9.86504         1.42626         0.51637
C          9.77509         4.21196         1.23924
C          8.60992         6.39374         1.30469
C          8.60846         7.76142         1.58075
C          9.81178         5.60929         1.50790
C          9.80882         8.46533         2.08975
C          8.62568        10.72993         1.74523
C          8.60993        11.99126         0.96086
C          9.90552         9.96017         1.92356
C          9.91680        12.52505         0.47292
C          8.75598        14.55963        -0.45355
C          8.74186        15.99868        -0.80943
C          9.99362        13.96118         0.07346
C          9.94926        16.71772        -0.77052
C          8.87634        18.54368        -2.16878
C          9.99851        18.08205        -1.25969
C         11.02279         1.98580         1.03910
C         10.93584         3.36428         1.54008
C         12.27730         1.30318         1.12618
C         12.28813         4.09051         1.74791
C         11.04813         6.25277         1.80611
C         11.10938         7.70046         2.10907
C         12.25415         5.54277         1.71821
C         12.41159         8.42210         2.02187
C         11.22582        10.53538         1.54044
C         11.20749        11.82439         0.79606
C         12.41676         9.87959         1.84654
C         12.47874        12.62914         0.68622
C         11.14546        14.71095         0.16742
C         11.13385        16.13316        -0.18969
C         12.39930        14.11597         0.62327
C         12.22692        16.93321         0.08169
C         11.05771        18.88277        -0.97756
C         12.18731        18.43848        -0.09242
C         13.48489         1.97624         1.29552
C         13.52092         3.39274         1.40644
C         14.80245         1.23665         1.34027
C         14.68119         4.14624         1.05963
C         13.48604         6.22342         1.56566
C         13.54780         7.63516         1.83993
C         14.65244         5.56977         1.13976
C         14.90016         8.11161         2.04881
C         13.68749        10.60942         1.71753
C         13.74656        11.99094         1.15960
C         14.87485        10.14459         2.20799
C         14.86815        12.84819         1.59198
C         13.50553        14.88749         0.88827
C         13.43376        16.35780         0.68754
C         14.75894        14.29568         1.43398
C         14.72327        17.14293         0.49930
C         13.50420        18.98851        -0.59101
C         14.71097        18.40947        -0.29084
C         15.96831         2.03983         0.78772
C         15.86539         3.46828         0.63008
C         17.14985         1.37681         0.55222
C         16.99507         4.25150         0.19576
C         15.77062         6.42001         0.56040
C         16.01473         7.71354         1.34892
C         17.02389         5.63190         0.32795
C         17.27361         8.47986         1.21243
C         16.21471        10.72945         2.00781
C         16.16437        12.21611         1.90068
C         17.37627         9.92710         1.48616
C         17.45332        12.94097         1.66004
C         16.05812        15.12591         1.37693
C         15.99449        16.36203         0.52571
C         17.40095        14.43846         1.51801
C         17.25847        17.07305         0.11151
C         15.96056        19.06003        -0.58319
C         17.20642        18.51376        -0.26622
C         18.23019         2.01834        -0.21042
C         18.10592         3.52624        -0.45742
C         19.56811         1.41727        -0.25842
C         19.31379         4.27959        -0.94667
C         18.18279         6.46554        -0.07134
C         18.34226         7.80751         0.58263
C         19.35310         5.77989        -0.73904
C         19.65808         8.42961         0.47929
C         18.49739        10.68804         1.08097
C         18.59455        12.14824         1.12180
C         19.72848         9.97731         0.69031
C         19.70974        12.82801         0.60477
C         18.66029        15.16110         1.11939
C         18.52415        16.55681         0.64358
C         19.90428        14.30750         0.74918
C         19.57365        17.42459         0.71480
C         18.41177        19.26934        -0.33543
C         19.65101        18.72813         0.08683
C         20.69268         2.09167        -0.69499
C         20.59408         3.49829        -1.17538
C         21.98503         1.48052        -0.65376
C         21.87996         4.24573        -1.39865
C         20.67336         6.45084        -0.69718
C         20.77517         7.75893        -0.24102
C         21.86491         5.79232        -1.23385
C         21.98155         8.49740        -0.46229
C         20.75888        10.70639        -0.06378
C         20.72436        12.09068        -0.12469
C         21.84254         9.94649        -0.71029
C         21.72528        12.80598        -0.91871
C         21.00522        14.98433        -0.01802
C         21.35735        16.35504         0.25076
C         21.69713        14.24852        -0.96709
C         22.29296        17.21879        -0.32290
C         20.92882        19.33727        -0.04022
C         22.19788        18.65600        -0.03247
C         23.18032         2.17511        -0.91035
C         23.16312         3.58234        -1.21148
C         24.44772         1.52953        -0.89775
C         24.36375         4.30805        -1.34866
C         23.16188         6.45397        -1.12119
C         23.15614         7.86562        -0.92051
C         24.34654         5.74258        -1.39761
C         24.31570         8.59054        -1.36324
C         22.99830        10.69189        -1.32698
C         22.81198        12.13876        -1.44184
C         24.38005        10.08152        -1.19221
C         24.83701        13.23032        -1.50658
C         23.64754        15.40176        -1.31994
C         23.56187        16.67797        -0.77151
C         24.82770        14.61762        -1.20035
C         24.75023        17.32487        -0.31245
C         23.40423        19.36797         0.08220
C         24.67579        18.70290         0.11445
C         25.63962         2.22589        -1.13421
C         25.64012         3.66018        -1.33659
C         26.88071         1.53157        -1.13900
C         26.85013         4.39368        -1.46719
C         25.56461         6.45778        -1.64313
C         25.35471         7.85095        -1.89114
C         26.85130         5.83592        -1.63683
C         27.21421         8.91249        -1.67620
C         25.69944        10.85472        -1.04327
C         25.83331        12.36430        -1.05632
C         27.01700        10.12078        -1.07218
C         26.98416        12.96962        -0.46218
C         25.96682        15.19648        -0.57207
C         25.94370        16.58127        -0.20366
C         27.08635        14.36805        -0.28386
C         27.10419        17.18463         0.38604
C         25.85658        19.32464         0.54182
C         27.07071        18.58955         0.69888
C         28.08101         2.21539        -1.27194
C         28.09995         3.65878        -1.39807
C         29.32031         1.48698        -1.26444
C         29.32723         4.31892        -1.42660
C         28.11651         6.57598        -1.55462
C         28.26399         7.96287        -1.37500
C         29.41452         5.79882        -1.70940
C         29.47476         8.58062        -0.83432
C         28.15953        10.66637        -0.32011
C         28.12804        12.13484        -0.01645
C         29.45636         9.93730        -0.41201
C         29.43531        12.84251         0.11174
C         28.25662        14.97750         0.35605
C         28.24234        16.40214         0.66899
C         29.37872        14.23040         0.62469
C         29.41211        17.01541         1.20992
C         28.24441        19.19184         1.18983
C         29.41235        18.43513         1.42763
C         30.51512         2.14239        -1.30353
C         30.55320         3.57632        -1.34562
C         31.77558         4.25407        -1.23449
C         30.65326         6.42233        -1.08592
C         30.66969         7.82010        -0.71333
C         31.80311         5.64765        -1.02378
C         31.82225         8.44853        -0.19290
C         30.65250        10.57294         0.00552
C         30.70153        12.06022         0.16092
C         31.82285         9.80275         0.11918
C         31.87975        12.76853         0.73105
C         30.49475        14.72878         1.50987
C         30.57744        16.24850         1.53380
C         31.79880        14.00255         1.25213
C         31.69641        16.89921         2.03405
C         30.59535        19.05791         1.92588
C         31.71106        18.30344         2.21122
O         17.64733        13.82428         2.81163
O         15.28816        15.11541         2.57919
O         18.35949         6.51525        -1.55067
O          2.15857         8.93538         2.21618
O         21.76423         5.12512        -2.53890
O         13.42687        12.08941        -0.30229
O         16.54999        16.15097        -0.81066
O         20.17879         9.03428         1.70917
O         24.91772        10.42007         0.14301
O         30.26439        12.71789        -1.10856
O         17.67297         2.57333        -1.46389
O         22.48658        14.87247        -1.94165
O         10.35730         7.99100         3.35554
O         10.55197        11.62670        -0.52162
O          3.02330         5.81532        -2.27192
O         14.01661        17.20199         1.76562
O         27.84257        11.16737         1.04020
O         22.00119        10.07862        -2.20851
O         11.51957         3.52903         2.85832
O         23.75158        12.75949        -2.26687
O         14.95140         9.05905         3.07921
O         26.30137         8.52280        -2.66152
O          8.07545        13.72221        -1.49038
O         20.72880        16.97604         1.34885
O          5.74637        14.93361         1.20977
O         19.70981        14.86522         2.07028
O          9.33527        10.77264         3.02513
O         19.67365         3.79044        -2.26733
O         16.38782        11.53668         3.23389
O          7.21984         9.08430         3.00179
O         30.11879        14.33636         2.87818
H         29.28893        14.80720         3.10555
O          2.59164        17.49250         0.37463
H          3.34397        18.13832         0.37717
O         15.29892         6.80838        -0.78087
H         16.07507         6.82882        -1.38393
O         14.71797        -0.02693         0.67624
H         14.72464         0.13276        -0.28978
O         29.66745         5.88347        -3.17192
H         30.49205         5.38105        -3.34893
O          5.79437        11.25849         3.13366
H          6.06484        10.53815         3.74790
O          3.62650        15.41819        -2.48644
H          4.40530        14.85494        -2.67978
O         11.95432        19.00999         1.24146
H         12.65347        18.63007         1.82684
O          4.91002        18.84971        -0.14841
H          5.64205        18.54371         0.43005
O          8.82537        19.96449        -2.25940
H          8.64753        20.32571        -1.36701
H          1.28547         1.74068        -3.22472
H          1.33848         4.25878        -3.35699
H          3.11753         0.56698        -1.98725
H          0.66940         6.63212        -1.45591
H          0.25277         7.95111         0.67850
H          0.20071        10.64543         2.10377
H          0.31512        12.94464         1.14354
H          0.33648        14.21688        -0.43624
H          0.35553        16.50128        -1.30673
H          1.74795        18.23249        -2.55608
H          5.22609         0.58094        -0.95463
H          3.92169        19.30502        -3.02336
H          7.49470         0.51381        -0.30851
H          6.41497        19.62917        -2.46278
H          9.85793         0.37720         0.18549
H          9.10333        18.16370        -3.20485
H         12.30685         0.22117         0.92730
H         11.07679        19.91230        -1.36724
H         15.01327         1.00860         2.42444
H         13.48889        19.94447        -1.13630
H         17.23333         0.30830         0.80097
H         15.91575        20.09028        -0.96743
H         19.68714         0.40962         0.16839
H         18.36981        20.28738        -0.75045
H         22.04166         0.41330        -0.39261
H         20.95699        20.42028        -0.24571
H         24.49165         0.44602        -0.71210
H         23.37341        20.44869         0.29025
H         26.88571         0.43911        -1.01035
H         25.84060        20.38666         0.82936
H         29.28262         0.38949        -1.21011
H         28.24971        20.26966         1.41078
H         31.46454         1.58865        -1.27685
H         32.70986         3.67852        -1.17418
H         32.76490         6.10255        -0.74971
H         32.75430         7.88270        -0.06602
H         32.75628        10.26938         0.46140
H         32.86758        12.29093         0.64027
H         32.72244        14.47523         1.61883
H         32.59226        16.32806         2.31388
H         30.59979        20.14572         2.08528
H         32.61938        18.78446         2.59990
