         210
 CSIRO Nanostructure Databank - Neutral Graphene Oxide Data Set
C         30.63434        31.42232         0.93228
C         30.91744        32.60702         1.39296
C         30.79659        35.72428         2.06672
C         30.83187        36.95922         2.00514
C         30.62330        40.10277         1.68100
C         30.49521        41.33833         1.52525
C         32.80298        29.10578        -1.02600
C         31.79231        29.52822        -0.42327
C         32.80616        31.65465        -0.15814
C         31.65165        30.81580         0.17859
C         32.86365        33.14636         0.20365
C         31.85399        33.56589         1.30462
C         33.15531        35.75084         1.40161
C         32.04753        34.85642         2.04180
C         33.09753        37.19493         1.42748
C         31.86223        37.89461         1.68410
C         32.94089        40.08751         1.26152
C         31.77609        39.28479         1.56215
C         32.86247        41.51621         1.10863
C         31.57467        42.20447         1.21728
C         32.73112        44.18082         0.71920
C         31.65305        43.59544         0.98856
C         35.48715        27.70382        -1.78266
C         35.25869        29.11222        -1.56517
C         34.03858        29.76434        -1.31185
C         34.96170        32.11233        -1.16714
C         33.89069        31.17079        -0.89551
C         35.29934        33.19186        -0.38433
C         34.27019        33.61972         0.65231
C         35.42817        35.88509         0.47738
C         34.26357        35.12753         0.83780
C         35.45250        37.27977         0.74632
C         34.25434        37.96540         1.13683
C         35.38806        40.17500         0.97882
C         34.19961        39.41746         1.12948
C         35.35445        41.59415         0.83538
C         34.06824        42.25262         0.83218
C         35.21644        44.39677         0.29484
C         34.04335        43.67291         0.60523
C         35.32414        45.78206         0.02491
C         37.90907        27.58743        -1.85101
C         36.50569        26.99464        -1.78963
C         37.75739        28.87126        -0.98221
C         36.57073        29.71848        -1.42573
C         37.90007        31.79858        -1.14625
C         36.76456        31.07239        -1.60915
C         37.80187        33.22392        -0.86493
C         36.58003        33.87337        -0.47896
C         37.81008        36.00231        -0.17684
C         36.61381        35.24021        -0.03976
C         37.81542        37.41083         0.11874
C         36.66255        38.02780         0.57072
C         37.94223        40.20256         0.95520
C         36.67414        39.40330         1.20153
C         37.87881        41.76673         0.80005
C         36.54711        42.37094         0.63510
C         37.69892        44.47140        -0.11259
C         36.50562        43.74446         0.25410
C         37.67659        45.87910        -0.39377
C         36.37132        46.41844        -0.23016
C         40.16283        24.66976        -0.95329
C         39.21300        25.40201        -1.36261
C         40.21618        27.41402        -0.75231
C         39.05179        26.78180        -1.30493
C         40.26491        28.88673        -0.70963
C         39.07679        29.62269        -0.94280
C         40.36257        31.73955        -0.87689
C         39.07905        31.03665        -0.94722
C         40.32432        33.23476        -0.88211
C         39.02421        33.95663        -0.76896
C         40.29296        36.10135        -0.60461
C         39.02365        35.33417        -0.52092
C         40.32611        37.50729        -0.23737
C         39.01580        38.24429        -0.28254
C         40.31171        40.29625         0.27910
C         39.11478        39.57450         0.39887
C         40.30194        41.73781         0.28461
C         39.07641        42.44366         0.31653
C         40.16587        44.49925        -0.45867
C         38.99802        43.81560        -0.11722
C         40.07710        45.78890        -1.25562
C         38.83846        46.58654        -0.78683
C         40.08516        48.67269        -1.23549
C         39.07714        47.92312        -0.98214
C         42.53642        24.56409         0.07019
C         41.33749        25.20918        -0.40670
C         42.45872        27.38673         0.43195
C         41.33321        26.65301        -0.31364
C         42.65549        28.83076         0.00252
C         41.50910        29.54758        -0.43344
C         42.73984        31.67445        -0.16146
C         41.57875        30.99994        -0.45886
C         42.74375        33.13192         0.08674
C         41.50562        33.90361        -0.25177
C         42.82723        36.04727        -0.03547
C         41.62168        35.35582        -0.49218
C         42.79707        37.44812         0.00296
C         41.53852        38.16773        -0.07714
C         42.77632        40.30817         0.07637
C         41.55404        39.60512         0.07570
C         42.76407        41.74951         0.01737
C         41.53254        42.42775         0.06178
C         42.75546        44.60799        -0.35091
C         41.46533        43.89017        -0.10458
C         42.73534        45.93997        -1.03301
C         41.41002        46.60348        -1.35587
C         42.66213        48.68503        -1.35304
C         41.36661        48.14698        -1.38092
C         43.54767        25.25710         0.34000
C         44.99567        27.30586         0.63817
C         43.80373        26.63093         0.45907
C         45.05649        28.76668         0.61254
C         43.88908        29.48455         0.23262
C         45.14041        31.70936         0.58040
C         44.05550        30.94866        -0.16112
C         45.18784        33.11048         0.59528
C         44.01209        33.87597         0.26222
C         45.22596        36.02852         0.54113
C         44.01343        35.28946         0.27044
C         45.21061        37.43442         0.47254
C         44.01491        38.17234         0.20610
C         45.26033        40.32485         0.13697
C         44.01976        39.59445         0.14147
C         45.26248        41.74024        -0.05216
C         44.02040        42.45822        -0.12979
C         45.25104        44.57522        -0.43765
C         44.03259        43.85155        -0.34469
C         45.20133        46.02712        -0.61187
C         44.00727        46.71729        -0.86979
C         43.74564        48.06402        -1.15443
C         47.35372        27.36971         1.06051
C         46.29183        26.75082         0.85918
C         47.51032        28.78857         1.13164
C         46.28423        29.45591         0.89666
C         47.59559        31.66578         1.33706
C         46.25463        30.92069         1.09959
C         47.60076        33.11876         1.11880
C         46.42913        33.83022         0.89524
C         47.65971        35.98901         0.90409
C         46.45732        35.29737         0.81009
C         47.72648        37.46406         0.91481
C         46.42674        38.22251         0.74104
C         47.73183        40.30449         0.24909
C         46.48599        39.63820         0.33027
C         47.74711        41.71693         0.00190
C         46.50787        42.43756        -0.11975
C         47.75602        44.54808        -0.34071
C         46.49561        43.86331        -0.30317
C         47.58948        45.94955        -0.48937
C         46.51080        46.57420        -0.57732
C         50.04394        28.89051         1.22148
C         48.75866        29.48153         1.26048
C         50.12290        31.58054         1.13521
C         48.85858        30.89925         1.24579
C         50.15337        33.01832         1.11833
C         48.90159        33.78763         1.31256
C         50.19674        35.97913         0.83880
C         48.93047        35.29968         1.18292
C         50.19752        37.39259         0.56439
C         48.98991        38.16432         0.58796
C         50.22505        40.25720         0.12197
C         48.98258        39.55883         0.34155
C         50.25267        41.68770        -0.06537
C         49.00296        42.40889        -0.10258
C         50.27530        44.37108        -0.36057
C         48.97254        43.83668        -0.26656
C         51.17817        29.42023         1.13861
C         52.51618        31.63955         0.94719
C         51.37094        30.81982         1.06106
C         52.46873        32.89361         0.90422
C         51.35443        33.76064         0.99095
C         52.52451        35.97928         0.55861
C         51.37429        35.19326         0.84159
C         52.54059        37.21231         0.34788
C         51.42872        38.08851         0.31044
C         52.57142        40.30515        -0.08099
C         51.43719        39.48657         0.11728
C         52.65605        41.54758        -0.21621
C         51.51963        42.39286        -0.22271
C         51.38896        43.79576        -0.36018
O         46.71618        31.28541         2.44000
O         35.76842        31.80820        -2.27084
O         38.15787        41.09776         2.08192
O         47.01148        38.02041         2.07616
O         48.94319        34.64826         2.50445
O         41.11486        35.77075        -1.79105
O         41.72392        33.52064         1.13167
O         42.15475        44.67143         0.99317
O         40.60621        32.54034        -2.12462
O         42.22817        45.99869        -2.41554
O         32.54856        33.89406        -0.98489
H         31.69314        33.57642        -1.34270
O         42.02877        27.45544         1.82371
H         41.87957        26.53859         2.13980
O         44.51605        30.93494        -1.56598
H         43.78688        30.57551        -2.11589
O         39.74824        45.40239        -2.61277
H         40.59592        45.33531        -3.11258
O         36.66842        39.09713         2.63675
H         37.04285        39.88890         3.09029
O         34.56341        32.97716         1.91024
H         35.32109        33.43352         2.33009
O         37.50262        28.39248         0.36075
H         37.41511        29.16103         0.96110
O         38.78976        38.54507        -1.71405
H         39.02095        37.74203        -2.22969
O         38.19224        27.96412        -3.18859
H         38.34293        27.15831        -3.72427
O         32.43061        34.56624         3.37713
H         32.46620        35.40187         3.88660
