         429
 CSIRO Nanostructure Databank - Neutral Graphene Oxide Data Set
C          2.07424         2.57199        -2.50809
C          1.79798         3.78779        -1.95504
C          3.05888         1.71019        -1.93568
C          2.41982         4.12776        -0.61423
C          1.14468         6.27788        -0.54729
C          1.06151         7.67586        -0.41690
C          2.31872         5.60207        -0.27436
C          2.22805         8.44302        -0.16607
C          1.08923        10.68044         0.25934
C          1.10605        12.02733         0.41167
C          2.14247         9.91697        -0.52109
C          2.26028        12.85692         0.12261
C          1.16632        15.02342         0.80277
C          1.17279        16.37384         0.75199
C          2.33070        14.21983         0.42569
C          2.38801        17.13860         0.26889
C          2.47897        18.56840         0.76065
C          3.97834         2.20179        -1.00093
C          3.90600         3.67461        -0.64446
C          5.07273         1.44701        -0.57482
C          4.63583         4.10280         0.65063
C          3.37937         6.33214         0.54590
C          3.40782         7.80748         0.18888
C          4.73048         5.63019         0.56857
C          4.64221         8.57611         0.40601
C          3.49418        10.64212        -0.50281
C          3.49096        12.16396        -0.31582
C          4.72917         9.96389        -0.08621
C          4.78016        12.82766        -0.10554
C          3.58445        14.92626         0.27224
C          3.63725        16.37466         0.69918
C          4.75665        14.25723        -0.00320
C          4.91272        17.10685         0.35071
C          3.66911        19.19707         0.86102
C          4.93573        18.52764         0.55910
C          6.14853         2.02449         0.15578
C          6.00495         3.34901         0.92783
C          7.35773         1.38201         0.22973
C          7.25667         4.18419         0.68403
C          5.92470         6.30241         0.58772
C          5.94932         7.80478         0.63684
C          7.18678         5.56861         0.60799
C          7.18856         8.56076         0.36277
C          5.94337        10.66133        -0.01896
C          5.97250        12.10296        -0.11207
C          7.18924         9.93249         0.17657
C          7.24270        12.82738        -0.05589
C          5.99005        14.98945        -0.44270
C          6.06536        16.43195        -0.00091
C          7.24472        14.22665        -0.16090
C          7.31465        17.13119        -0.11468
C          6.13023        19.22338         0.43384
C          7.35091        18.54723         0.11784
C          8.50740         1.97579         1.00749
C          8.51452         3.47692         0.76106
C          9.81262         1.30329         0.68722
C          9.73715         4.12931         0.61555
C          8.45405         6.33474         0.64647
C          8.46406         7.82734         0.52990
C          9.72367         5.58616         0.37307
C          9.73838         8.51497         0.06609
C          8.46096        10.67904         0.16782
C          8.45851        12.10564         0.07607
C          9.67008         9.99171         0.29148
C          9.77027        12.87171         0.17002
C          8.46898        14.96294        -0.51102
C          8.51220        16.43384        -0.40724
C          9.74718        14.21707        -0.52096
C          9.75535        17.10648        -0.46464
C          8.58638        19.21990         0.01899
C          9.78138        18.52962        -0.26978
C         11.01331         1.98974         0.58412
C         10.99904         3.44561         0.61510
C         12.26344         1.31264         0.48189
C         12.22925         4.13609         0.67015
C         11.01094         6.34506         0.45561
C         10.95856         7.82627         0.69086
C         12.23094         5.59865         0.87917
C         12.25558         8.57053         0.89592
C         10.94596        10.73841         0.35431
C         10.93158        12.04394        -0.40540
C         12.22753        10.06301         0.67839
C         12.24829        12.80298        -0.39206
C         11.02822        14.95921        -0.62556
C         10.99873        16.40469        -0.69686
C         12.20564        14.23275        -0.68605
C         12.19557        17.13630        -0.85384
C         11.03366        19.21581        -0.36141
C         12.20979        18.55269        -0.66657
C         13.50201         1.99579         0.56045
C         13.47774         3.45919         0.66882
C         14.71249         1.29273         0.59665
C         14.69505         4.18985         0.59723
C         13.54755         6.36736         0.91531
C         13.53918         7.83508         0.71427
C         14.76486         5.60189         0.59816
C         14.70803         8.47684         0.38041
C         13.50250        10.77011         0.34951
C         13.43581        12.15171        -0.19710
C         14.75179         9.96201         0.25550
C         14.74707        12.90685        -0.20957
C         13.42552        14.90942        -1.15910
C         13.42061        16.43076        -1.28650
C         14.72058        14.16376        -1.06409
C         14.74170        17.15991        -1.31405
C         13.47431        19.36575        -0.88591
C         14.76740        18.57235        -0.86609
C         15.99570         2.00553         0.89977
C         15.92169         3.40381         0.32396
C         17.24467         1.28380         0.47070
C         17.23039         4.14263         0.12848
C         15.97380         6.31535         0.33327
C         15.96729         7.75607         0.26146
C         17.21317         5.61552         0.19215
C         17.17799         8.46358         0.11380
C         15.94165        10.58057        -0.40314
C         15.94517        12.05996        -0.63144
C         17.22080         9.89041        -0.15345
C         17.24457        12.77577        -0.58591
C         16.03616        14.88030        -1.18099
C         16.05341        16.38057        -1.27810
C         17.26169        14.18448        -0.69684
C         17.26736        17.07243        -0.78742
C         15.95826        19.18963        -0.63206
C         17.23562        18.49150        -0.62222
C         18.46087         1.97391         0.33433
C         18.46313         3.40583         0.36420
C         19.71780         1.26756         0.20811
C         19.73946         4.14344         0.61422
C         18.43035         6.30626         0.14744
C         18.43134         7.74699         0.11441
C         19.69795         5.61076         0.23037
C         19.62719         8.45096        -0.00671
C         18.39847        10.61704        -0.14997
C         18.43197        12.05425        -0.33013
C         19.64250         9.91682         0.31763
C         19.66175        12.77074        -0.19668
C         18.46084        14.90277        -0.52314
C         18.45812        16.35527        -0.55295
C         19.67284        14.19111        -0.27242
C         19.67856        17.06130        -0.33071
C         18.42743        19.18164        -0.38327
C         19.67466        18.49972        -0.30177
C         20.93605         1.93826         0.01745
C         20.90300         3.42046        -0.05140
C         22.18354         1.30051        -0.13660
C         22.19227         4.17333        -0.14355
C         20.87995         6.28631         0.04278
C         20.86613         7.72513        -0.24505
C         22.20341         5.60792         0.34563
C         22.20428         8.50915        -0.17686
C         20.92733        10.64399         0.03129
C         20.90115        12.05930        -0.01043
C         22.14651         9.95795         0.08252
C         22.12401        12.77736         0.09696
C         20.90817        14.91469        -0.13886
C         20.90564        16.35328        -0.18253
C         22.12181        14.21784         0.04074
C         22.13176        17.06939        -0.09365
C         20.89526        19.19736        -0.17579
C         22.13327        18.51350        -0.10370
C         23.43401         2.00893        -0.16294
C         23.45903         3.43586        -0.09017
C         24.67069         1.32121        -0.17824
C         24.66741         4.14685         0.14967
C         23.44399         6.31555        -0.24757
C         23.43429         7.78555         0.07503
C         24.68610         5.59797         0.22769
C         24.61270         8.47897         0.38531
C         23.36546        10.65652         0.30702
C         23.32349        12.06770         0.34347
C         24.60907         9.92478         0.45212
C         24.54600        12.82670         0.62562
C         23.36141        14.93929         0.10141
C         23.36528        16.36848        -0.00394
C         24.57932        14.25592         0.29097
C         24.60482        17.07018         0.02072
C         23.36583        19.20217        -0.02632
C         24.60431        18.51413         0.02266
C         25.89959         2.01058        -0.00691
C         25.87448         3.42312         0.22726
C         27.15217         1.34241        -0.00620
C         27.10038         4.10168         0.66401
C         25.82589         6.31364         0.55940
C         25.84096         7.75762         0.53984
C         27.06021         5.58667         0.95461
C         27.07885         8.47247         0.60289
C         25.83377        10.60374         0.55634
C         25.85174        12.06949         0.71566
C         27.07332         9.90852         0.53683
C         27.08877        12.80159         0.39715
C         25.82595        14.91988         0.16420
C         25.83389        16.35856         0.02816
C         27.04373        14.18726         0.14435
C         27.07165        17.06112         0.00432
C         25.83905        19.19561         0.09529
C         27.07314        18.49851         0.09028
C         28.38698         2.03731         0.15774
C         28.39189         3.43398         0.45610
C         29.62520         1.36643         0.02322
C         29.60933         4.16907         0.52086
C         28.37784         6.34981         1.14076
C         28.31330         7.78524         0.67774
C         29.60867         5.60469         0.65385
C         29.53135         8.49392         0.53771
C         28.30727        10.64119         0.51558
C         28.30221        12.07663         0.41387
C         29.53373         9.92978         0.47010
C         29.54463        12.81686         0.34145
C         28.27110        14.86079        -0.41665
C         28.30992        16.35406        -0.12166
C         29.54343        14.13868        -0.02013
C         29.50951        17.05725        -0.13758
C         28.31214        19.18161         0.15105
C         29.53668        18.48779         0.05386
C         30.85083         2.06302         0.14754
C         30.83665         3.47318         0.36945
C         32.09324         1.37858         0.01481
C         32.12535         4.19206         0.66209
C         30.80597         6.34227         0.46255
C         30.75388         7.76706         0.41776
C         32.07865         5.66229         0.33988
C         31.96825         8.53076         0.12490
C         30.79299        10.64155         0.51341
C         30.80840        12.12593         0.80199
C         31.98129         9.96863         0.44015
C         32.08904        12.79963         0.34221
C         30.81178        14.83577        -0.30816
C         30.79250        16.36582        -0.39669
C         32.08273        14.17405        -0.03134
C         32.05883        17.06737        -0.20334
C         30.78371        19.16161         0.11678
C         32.03138        18.48544         0.02242
C         33.32717         2.07903        -0.04331
C         33.34936         3.50164         0.12389
C         34.53798         1.39951        -0.31201
C         34.54207         4.22532        -0.05367
C         33.27734         6.34048         0.13665
C         33.26812         7.80548        -0.04850
C         34.53925         5.66575         0.00797
C         34.53085         8.55511         0.16401
C         33.27036        10.64495         0.84230
C         33.28583        12.10019         0.42871
C         34.52469         9.89236         0.45024
C         34.54007        12.78306         0.27345
C         33.29797        14.89277        -0.19601
C         33.28472        16.35929        -0.28589
C         34.51198        14.19361        -0.01870
C         34.49537        17.09957        -0.24310
C         33.25350        19.18534         0.12845
C         34.49416        18.51635        -0.00542
C         35.75578         2.10176        -0.44636
C         35.76034         3.53084        -0.34300
C         36.98234         1.42029        -0.66926
C         36.97037         4.25227        -0.53328
C         35.75146         6.40212        -0.18468
C         35.76833         7.82925        -0.04908
C         36.97779         5.69497        -0.44939
C         36.97161         8.57379        -0.18801
C         35.82147        10.61137         0.70991
C         35.75263        12.07952         0.37433
C         37.03194         9.95140         0.08298
C         37.02424        12.79270         0.51035
C         35.77445        14.88718        -0.24515
C         35.77850        16.43108        -0.40871
C         37.02764        14.30004         0.26695
C         37.03183        17.13480        -0.11933
C         35.72511        19.21722         0.07993
C         36.98420        18.55577         0.04694
C         38.17481         2.12427        -0.85962
C         38.15552         3.55086        -0.85573
C         39.44415         1.41611        -0.90791
C         39.37514         4.29778        -1.17885
C         38.18858         6.40240        -0.65531
C         38.15774         7.86926        -0.69445
C         39.42054         5.74550        -0.91146
C         39.50224         8.62319        -0.69022
C         38.25958        10.68419         0.01178
C         38.29316        12.09413         0.29099
C         39.49596        10.02046        -0.23531
C         39.49618        12.82997         0.21590
C         38.29544        14.99870         0.03904
C         38.26037        16.43220        -0.05054
C         39.50075        14.28403         0.17031
C         39.48693        17.15541         0.08047
C         38.20354        19.26093         0.17028
C         39.44599        18.58715         0.15854
C         40.63413         2.05956        -0.97590
C         40.70159         3.50786        -1.23294
C         41.91424         4.27410        -0.93349
C         40.67429         6.41812        -0.85372
C         40.73452         7.82868        -0.61177
C         41.89082         5.62930        -0.83739
C         41.91631         8.53299        -0.29228
C         40.73042        10.68244        -0.04481
C         40.74497        12.12597         0.12145
C         41.92248         9.90570        -0.07909
C         41.93835        12.86604         0.11488
C         40.74617        15.00050         0.15114
C         40.73161        16.46016         0.15878
C         41.93951        14.26302         0.15170
C         41.91250        17.21812         0.26111
C         40.67126        19.30356         0.26577
C         41.87576        18.62112         0.30395
O         38.72206         8.42388        -1.92077
O         15.72169        11.13498        -1.74107
O         13.21173        15.57191        -2.44166
O          3.55313        11.52566        -1.66172
O         21.57386         8.13991        -1.48072
O         25.16532        12.52580         1.93446
O         32.53075         8.24271        -1.24278
O          6.03161         3.00904         2.29551
O          8.57466         7.19438         1.84350
O         30.77544        15.52638        -1.61645
O         11.38699         8.19208         2.01376
O         40.00466         3.91418        -2.44845
O         12.83480         5.97241         2.14360
O         21.34361         3.96173        -1.32437
O         10.48422         5.94287        -0.83945
O          9.02689        14.33116        -1.79208
O         36.96704        13.76955         1.62668
O         16.43138         3.57096        -1.01179
O          5.19915         8.36888         1.75611
O         26.87787         4.64624         2.05661
O         15.45429        14.13628        -2.30713
O         11.50311        10.82200         1.71803
O         14.43770        10.67869         1.51033
O         35.88570        15.50669        -1.55197
O         15.53024        16.93027        -2.52467
O         13.53189        20.45851         0.03491
H         13.57390        20.09740         0.94364
O         28.15804        14.73818        -1.87492
H         29.02025        15.05676        -2.24061
O         20.03778         4.07664         2.06181
H         19.21474         4.28295         2.55468
O         32.27366         4.12611         2.14429
H         32.28395         3.17521         2.38713
O         23.41345         6.16690        -1.68918
H         22.68328         6.74322        -2.02710
O          8.30933         1.72648         2.42535
H          7.43232         2.17666         2.64905
O          5.88619        15.03160        -1.91429
H          6.79545        15.08162        -2.28215
O          3.58832        16.34922         2.15982
H          4.38532        15.88041         2.48436
O         19.57651         9.96183         1.80669
H         18.69808         9.61264         2.07211
O         10.62635        11.70760        -1.77847
H         10.37285        12.53171        -2.25153
O          9.84539         8.35115        -1.38142
H          9.91091         9.23649        -1.80115
O          3.79367         3.78429         1.78379
H          4.45277         3.39168         2.44821
O         16.09077         2.20285         2.36797
H         15.92856         1.33552         2.79567
O          4.57247         4.39991        -1.70918
H          4.15630         4.13760        -2.55835
O         14.99042        13.36283         1.14960
H         14.86203        12.57901         1.73861
O          1.66506         3.36438         0.35538
H          2.20548         3.33814         1.18507
O         22.36259         5.61465         1.78179
H         21.61840         5.08972         2.17125
O         30.83538        12.22482         2.27531
H         30.72312        13.16837         2.51871
O         10.04361        13.18296         1.55595
H         10.33878        12.36374         2.01585
O         33.25569        10.65102         2.32011
H         32.45145        11.16358         2.59170
O         36.04055        10.53479         2.16434
H         35.16372        10.70292         2.58920
O          2.86560         6.27369         1.92294
H          3.05044         5.34812         2.23398
O          1.64644         9.91679        -1.89083
H          2.02444        10.72360        -2.31895
O          2.35986        17.16462        -1.18019
H          1.55266        17.64021        -1.46454
O         28.58488         6.46784         2.58991
H         28.19413         5.65361         2.98883
H          1.53861         2.23737        -3.40896
H          1.04760         4.44883        -2.41229
H          3.16706         0.68318        -2.31434
H          0.27788         5.73561        -0.95261
H          0.12558         8.19050        -0.67282
H          0.18300        10.12620         0.54701
H          0.23101        12.51131         0.87077
H          0.24256        14.50274         1.09683
H          0.25836        16.93457         1.00434
H          1.54636        19.11796         0.96685
H          5.13233         0.38205        -0.85309
H          3.71062        20.25755         1.15536
H          7.51961         0.45609        -0.34730
H          6.14853        20.31393         0.58004
H          9.82793         0.20214         0.71336
H          8.62246        20.30787         0.17986
H         12.26456         0.21339         0.43161
H         11.05666        20.30631        -0.21797
H         14.70969         0.19940         0.46994
H         13.39444        19.82717        -1.91080
H         17.25022         0.18270         0.47884
H         15.95942        20.26168        -0.38153
H         19.70353         0.16777         0.23591
H         18.40883        20.27689        -0.28106
H         22.21676         0.20021        -0.13912
H         20.88660        20.29747        -0.15785
H         24.68126         0.22576        -0.27638
H         23.36490        20.30260        -0.01975
H         27.17818         0.25790        -0.18789
H         25.84646        20.29540         0.12817
H         29.63629         0.28781        -0.19031
H         28.32009        20.27599         0.26122
H         32.08857         0.29054        -0.14227
H         30.78677        20.25265         0.25618
H         34.52917         0.30558        -0.42727
H         33.24130        20.27114         0.30239
H         36.99124         0.32026        -0.68122
H         35.70437        20.30887         0.21219
H         39.41833         0.32477        -0.77017
H         38.18607        20.35545         0.27916
H         41.57724         1.50368        -0.86535
H         42.85452         3.72608        -0.77210
H         42.84201         6.14882        -0.65867
H         42.87601         8.00168        -0.23712
H         42.88810        10.39164         0.11540
H         42.90577        12.34858         0.06032
H         42.90868        14.77978         0.14195
H         42.88895        16.71881         0.32000
H         40.65004        20.40124         0.32162
H         42.81884        19.17960         0.38516
