         576
 CSIRO Nanostructure Databank - Neutral Graphene Oxide Data Set
C          6.17435        19.13350         1.95116
C          6.18295        20.15228         2.85278
C          5.29844        21.30578         2.93387
C          7.05002        22.92453         3.96240
C          5.68718        22.51609         3.39587
C          7.14488        24.42967         3.98001
C          8.41091        14.88027         1.01758
C          8.39851        16.23517         0.85759
C          7.28028        17.00801         1.36383
C          8.69130        19.03693         1.43491
C          7.37789        18.32939         1.68502
C          9.21765        20.17319         2.28649
C          8.26121        20.93960         3.11180
C          9.29174        23.08577         2.61474
C          8.22143        22.29236         3.20898
C          9.16341        24.47606         2.58516
C          8.08963        25.17104         3.31180
C          8.58217        27.51715         2.57474
C          8.10776        26.62531         3.52530
C          9.04619        28.85481         2.66492
C         10.86055        10.51526         1.14446
C         10.86186        11.99593         1.41886
C          9.59387        12.75550         1.11853
C         10.73600        14.68942         0.05397
C          9.56625        14.06002         0.72981
C         10.68306        16.15420        -0.31522
C          9.39681        16.96564        -0.02578
C         11.05119        18.98795         0.35943
C          9.68739        18.39047         0.51500
C         11.24918        20.38403         0.70969
C         10.39703        20.94776         1.78084
C         11.53940        23.09615         1.49404
C         10.43229        22.40938         2.01231
C         11.60734        24.55898         1.64513
C         10.30878        25.24372         2.06330
C         11.11519        27.32400         0.96001
C         10.10463        26.52865         1.42599
C         10.89867        28.78504         0.79576
C          9.96541        29.47766         1.75976
C         11.17372        31.61960         1.31586
C         10.10447        30.86227         1.88347
C         11.23833        33.00899         1.55902
C         13.56130         6.31029         1.28126
C         13.36256         7.67028         0.79669
C         12.18299         8.34249         1.02621
C         13.35947        10.51026         0.47501
C         12.03707         9.77145         0.72081
C         13.41768        11.97711         0.76002
C         12.15323        12.73410         0.99127
C         13.34156        14.79205        -0.08880
C         12.08141        14.04522         0.23779
C         13.29541        16.14051        -0.50099
C         11.98701        16.86150        -0.54507
C         13.18121        19.03550        -0.93402
C         12.05789        18.31949        -0.28356
C         13.24283        20.56372        -0.85532
C         12.33684        21.10647         0.24199
C         13.70975        23.16384         0.25703
C         12.53022        22.45867         0.67266
C         13.86924        24.64232         0.57139
C         12.54401        25.32625         0.81168
C         13.32136        27.43907        -0.18233
C         12.35560        26.68568         0.60288
C         13.33696        28.83349        -0.23263
C         12.12212        29.55779         0.26587
C         13.40212        31.70361         0.26724
C         12.24275        30.97639         0.62965
C         13.43175        33.10412         0.50403
C         12.34628        33.76248         1.14036
C         13.54388        35.93226         1.16997
C         12.40720        35.17859         1.41839
C         13.64834        37.31590         1.57464
C         15.90372         6.25322         0.51482
C         14.77633         5.70295         1.25009
C         15.62174         7.48223        -0.33669
C         14.52911         8.34809         0.25938
C         15.83440        10.42406        -0.02837
C         14.60619         9.72838         0.28801
C         15.89575        11.90119         0.05978
C         14.66356        12.70652         0.34416
C         15.74716        14.74252        -0.59238
C         14.57534        14.10661        -0.11597
C         15.68962        16.09946        -1.00830
C         14.47281        16.80831        -0.94308
C         15.60315        19.05904        -1.88471
C         14.37765        18.24151        -1.39204
C         15.77158        20.42740        -1.22731
C         14.66780        21.12207        -0.75834
C         16.04385        23.28961        -0.60699
C         14.76803        22.50810        -0.36861
C         15.74337        24.63116        -1.31996
C         14.65111        25.33680        -0.51738
C         15.89946        27.69623        -1.53782
C         14.22865        26.56908        -0.89982
C         15.77532        28.96053        -1.01234
C         14.51322        29.62655        -0.61848
C         15.74870        31.82047        -0.61197
C         14.53094        31.00212        -0.33726
C         15.87398        33.17238         0.09172
C         14.56449        33.93543        -0.04468
C         15.86412        36.02735         0.35426
C         14.68773        35.32375         0.53916
C         15.96503        37.40834         0.78546
C         14.80510        38.01393         1.39714
C         18.11983         5.97587        -0.64363
C         17.09181         5.60550         0.42053
C         18.17935         7.49544        -0.84632
C         16.89314         8.26620        -0.67762
C         18.21497        10.39975        -0.66796
C         16.96434         9.72484        -0.43001
C         18.25052        11.82985        -0.69542
C         17.04164        12.60905        -0.52818
C         18.21016        14.70737        -1.02851
C         16.99340        13.99256        -0.70577
C         18.20790        16.02271        -1.44155
C         16.90186        16.73005        -1.60744
C         18.18368        18.95489        -2.07977
C         16.87667        18.20460        -1.93530
C         18.22620        20.41242        -1.79501
C         17.05078        21.11431        -1.43620
C         18.27139        23.25914        -1.67404
C         17.11125        22.52589        -1.32682
C         18.27018        24.73390        -1.73030
C         17.05599        25.44155        -1.52184
C         18.34461        27.53742        -1.49398
C         17.10094        26.86845        -1.53088
C         18.37043        28.95866        -1.11057
C         17.07116        29.64725        -0.79448
C         18.34926        31.83412        -0.63489
C         17.03750        31.12486        -0.90393
C         18.21102        33.31244        -0.95638
C         17.04253        34.01772        -0.38337
C         18.16653        36.25140        -0.76893
C         17.03585        35.37417        -0.23412
C         18.30929        37.56277        -0.01449
C         17.14927        38.11004         0.64081
C         20.66063         6.06372        -0.42572
C         19.46784         5.36518        -0.38267
C         20.66516         7.52116        -0.57335
C         19.45852         8.22840        -0.69598
C         20.67954        10.36457        -0.79094
C         19.43639         9.65972        -0.75431
C         20.68959        11.79530        -0.82949
C         19.47117        12.50777        -0.80806
C         20.70639        14.58830        -1.35488
C         19.49775        14.01019        -0.63768
C         20.66184        16.09506        -1.37362
C         19.47296        16.74044        -1.62152
C         20.76289        18.95136        -1.94322
C         19.47118        18.18310        -2.00569
C         20.73318        20.42187        -1.86840
C         19.47566        21.10941        -1.81640
C         20.73523        23.23851        -2.08543
C         19.47028        22.53886        -1.80545
C         20.72340        24.74766        -2.43119
C         19.47839        25.44606        -2.02950
C         20.77190        27.60490        -1.97800
C         19.54422        26.85606        -1.82154
C         20.77924        29.05290        -1.84828
C         19.56042        29.77144        -1.45593
C         20.70576        31.94955        -1.52938
C         19.52365        31.14838        -1.31713
C         20.71286        33.31016        -1.32763
C         19.46903        34.08817        -1.19643
C         20.67862        36.20745        -0.78832
C         19.50412        35.53099        -0.85163
C         20.73218        37.72138        -0.68387
C         19.49552        38.23725         0.00229
C         23.14195         6.04943        -0.36293
C         21.91088         5.37491        -0.30785
C         23.14274         7.48605        -0.49602
C         21.91512         8.21476        -0.58399
C         23.13142        10.36959        -0.71259
C         21.90863         9.64413        -0.71987
C         23.13932        11.76966        -0.75205
C         21.93728        12.50849        -0.80610
C         23.15060        14.63650        -0.50922
C         21.97832        13.94040        -0.84191
C         23.09486        16.13271        -0.48673
C         21.88880        16.84095        -1.02623
C         23.20711        19.02920        -1.14633
C         22.01508        18.24147        -1.52901
C         23.17758        20.46313        -1.30262
C         21.95605        21.12985        -1.65794
C         23.11389        23.23992        -1.18367
C         21.95631        22.55249        -1.61424
C         23.26428        24.87718        -3.02845
C         21.97715        25.53304        -2.57990
C         23.21581        27.66284        -2.64064
C         21.96188        26.90868        -2.36116
C         23.25172        29.17887        -2.45246
C         21.93058        29.78425        -2.09432
C         23.23236        31.89144        -1.63442
C         21.92410        31.29054        -2.15250
C         23.22765        33.42876        -1.71487
C         21.99496        34.00359        -0.95792
C         23.24660        36.25975        -0.85113
C         21.96126        35.51981        -1.07261
C         23.25151        37.63578        -0.28383
C         22.02472        38.26458        -0.10145
C         25.62109         6.03749        -0.32108
C         24.39171         5.36772        -0.23827
C         25.60774         7.45931        -0.54654
C         24.39344         8.15782        -0.54306
C         25.69284        10.36069        -0.58168
C         24.39187         9.63302        -0.48802
C         25.69449        11.79963        -0.95254
C         24.40138        12.53205        -0.90114
C         25.65051        14.39291         0.09757
C         24.38856        13.92518        -0.38022
C         25.61501        16.38360        -1.07302
C         24.38040        16.93348        -0.35130
C         25.60048        19.07533        -0.45975
C         24.35586        18.36286        -0.82446
C         25.58359        20.55874        -0.60373
C         24.36524        21.20605        -1.13828
C         25.67016        23.24669        -1.84107
C         24.38774        22.61722        -1.24878
C         25.65072        24.77080        -2.00303
C         24.55674        25.46221        -2.45421
C         25.71980        27.68731        -2.08639
C         24.53907        26.94254        -2.58975
C         25.62172        28.91932        -1.54837
C         24.29692        29.62888        -1.35419
C         25.68474        31.82516        -1.39750
C         24.35457        31.16304        -1.44914
C         25.76807        33.29318        -1.19885
C         24.49220        34.01138        -1.04265
C         25.76581        36.15652        -0.47885
C         24.50091        35.46452        -0.66556
C         25.77353        37.54428        -0.14150
C         24.50572        38.21534         0.04360
C         28.09244         6.00608         0.00907
C         26.87002         5.35915        -0.03073
C         28.17055         7.39304        -0.49864
C         26.88947         8.16025        -0.76761
C         28.14708        10.34993        -0.74435
C         26.96271         9.63470        -0.73006
C         28.16659        11.79784        -0.68623
C         26.96299        12.51865        -0.73538
C         28.11078        14.68454        -0.40856
C         26.90386        13.89658        -0.43804
C         28.09751        16.17396        -0.38768
C         26.91499        16.93573        -0.55885
C         28.09614        19.06973        -0.26708
C         26.90040        18.34556        -0.42372
C         28.11943        20.59393        -0.03931
C         26.84956        21.35155        -0.49573
C         28.23607        23.36248        -1.26268
C         26.90133        22.73045        -1.07867
C         28.27313        24.73290        -1.88982
C         26.93916        25.51523        -1.59512
C         28.19024        27.62359        -1.58488
C         27.01709        26.92850        -2.23200
C         28.10525        28.85044        -1.00941
C         26.76918        29.52537        -0.75553
C         28.08746        31.69340        -0.60533
C         26.88730        30.99955        -1.09970
C         28.07035        33.14114        -0.47174
C         26.92805        33.93079        -0.85118
C         28.25562        36.00946        -0.06423
C         27.05119        35.44622        -0.80864
C         28.36178        37.53028        -0.08261
C         27.00463        38.18581         0.08176
C         30.50682         6.09885         0.62957
C         29.32559         5.39872         0.45873
C         30.53834         7.57531         0.49295
C         29.33617         8.23308        -0.10171
C         30.69816        10.38727        -0.35394
C         29.43792         9.62179        -0.65787
C         30.57712        11.84002        -0.14647
C         29.37883        12.52671        -0.40059
C         30.50453        14.72178         0.08631
C         29.31590        13.97298        -0.39081
C         30.60958        16.16668        -0.32671
C         29.29740        16.91550        -0.21566
C         30.58457        19.07221        -0.04205
C         29.29773        18.32713        -0.20195
C         30.63153        20.45403        -0.63722
C         29.35888        21.22832        -0.67014
C         30.67015        23.40194        -0.85829
C         29.39378        22.70901        -0.92097
C         30.76887        24.76724        -1.15664
C         29.55740        25.51981        -1.55263
C         30.58551        27.83159        -1.49760
C         29.46487        26.90652        -1.57806
C         30.61076        28.99842        -0.80313
C         29.27676        29.50460        -0.29029
C         30.49552        31.84746        -0.20305
C         29.23568        31.01335        -0.36549
C         30.22618        32.96466         0.80195
C         29.06945        33.74089         0.24138
C         30.66897        35.39627         0.73998
C         29.24517        35.15727         0.34821
C         30.61367        37.61723         1.12183
C         29.33834        38.04788         0.96485
C         32.89376         6.18956         1.21665
C         31.74553         5.47328         1.02776
C         32.98007         7.62102         0.98378
C         31.82396         8.30947         0.52823
C         33.09575        10.39246         0.40851
C         31.88774         9.68565         0.22128
C         33.16461        11.84600         0.12639
C         31.83866        12.57307         0.05851
C         32.96797        14.72402         1.02476
C         31.73084        13.98767         0.51504
C         32.94438        16.19181         0.64057
C         31.84081        16.85341         0.21479
C         33.15456        19.06285        -0.06574
C         31.86891        18.33258         0.09979
C         33.15772        20.41885        -0.16775
C         31.97077        21.20043        -0.74959
C         33.09050        23.36971        -0.06843
C         31.78339        22.62268        -0.14059
C         33.12642        24.74160        -0.13312
C         32.00483        25.45675        -0.75310
C         33.05069        27.58869        -0.00923
C         32.31536        26.76893        -1.03599
C         33.14197        29.06904        -0.22031
C         31.91292        29.82173        -0.74420
C         32.92766        31.92954         0.27952
C         31.70565        31.02629         0.19131
C         32.77191        33.39984         0.70288
C         31.38119        33.98360         0.95104
C         32.48896        35.76104         2.39371
C         31.22854        34.99710         2.07180
C         32.34372        37.15441         2.83265
C         31.46380        38.00685         2.25205
C         34.15653         8.34601         1.23066
C         35.38516        10.49273         1.38325
C         34.22354         9.74202         0.99856
C         35.49670        11.87570         1.22084
C         34.48169        12.60489         0.36248
C         35.42226        14.72906         1.21037
C         34.31050        14.04987         0.81070
C         35.33568        16.20677         1.51889
C         34.27223        16.86492         0.64740
C         35.74644        18.99587         0.29997
C         34.40007        18.27885         0.16967
C         35.67110        20.49657         0.43331
C         34.32455        21.19098         0.41165
C         35.65026        23.37280         0.10733
C         34.35900        22.61935        -0.06520
C         35.57802        24.80376         0.40394
C         34.35771        25.47039         0.19418
C         35.41802        27.62629         0.80224
C         34.33413        26.89704         0.32400
C         35.37151        29.04624         0.85224
C         34.20392        29.76406         0.38015
C         35.24896        31.87714         1.16571
C         34.16873        31.19863         0.58642
C         35.09026        33.25009         1.59136
C         33.90324        33.94317         1.49151
C         33.71894        35.21805         2.16375
C         36.62297        12.61492         1.63852
C         37.80136        14.78446         1.88889
C         36.67624        14.03591         1.52571
C         37.82950        16.22808         1.82872
C         36.66822        16.90660         1.47098
C         37.88084        19.13556         1.69660
C         36.63525        18.37297         1.37411
C         38.03395        20.52682         1.19761
C         36.84600        21.17728         0.64887
C         38.14835        23.41757         0.77038
C         36.92106        22.63877         0.40268
C         37.94450        24.84177         1.15580
C         36.72804        25.47855         0.94468
C         37.78727        27.66612         1.66453
C         36.51899        26.87158         1.50288
C         37.72561        29.03977         1.66947
C         36.51155        29.77093         1.34513
C         36.44576        31.15567         1.47824
C         39.03376        16.97671         2.12251
C         40.24457        19.13620         2.39024
C         39.08296        18.36154         2.07490
C         40.25732        20.51843         2.23800
C         39.16999        21.21715         1.56555
C         40.25479        23.41655         2.19943
C         39.42486        22.66931         1.18061
C         40.13250        24.77558         2.35574
C         39.02898        25.54215         1.82888
C         38.96922        26.92232         1.99101
C         41.34437        21.30029         2.78444
C         41.31033        22.66623         2.82901
O          7.28060        20.16793         3.73917
O         22.10897        16.71877         0.44323
O         31.15912        18.94247         1.28945
O         23.90934        27.29288        -3.87742
O         14.76741        27.08805        -2.09228
O         29.50704         8.23747         1.35231
O         26.45319        29.37345         0.62348
O         20.65928        23.72765        -3.47524
O         35.16619        22.94516        -1.22558
O         25.07807        10.13197         0.74737
O         36.73824        19.06745         2.65495
O         10.91436        29.29160        -0.56056
O         21.71072        18.39451        -2.94610
O         31.77187        27.42220        -2.14684
O         13.26765        18.50148        -2.30407
O         23.32117        23.93142        -3.80367
O          8.78887        26.95326         1.29025
O          8.73083        19.39636         0.01123
O         34.59076        17.14185        -0.76543
O         25.03868        12.20723        -2.20958
O         11.14217        16.42826        -1.67449
O         17.41196         7.94190        -2.01334
O         30.65846        14.29065         1.48483
O         13.10497        12.55571         2.08524
O         15.65845        12.47638         1.41292
O         31.18239        36.64357         0.23760
O         23.18942        33.75832        -3.05383
O         27.71186         7.57395        -1.85775
O         26.60829        22.54072         0.35257
O         24.35884        34.37703         0.35642
O         11.28882        13.83427        -0.98930
O         37.88335        23.07744        -0.63524
O         18.85393        18.51066        -3.29989
O         16.25241        31.68797        -1.98281
O         12.46770        10.21978        -0.65206
O         26.57065        31.33002        -2.48446
O         25.35758        19.93082         0.72728
O         16.69589        17.20368        -2.98789
O         29.83840        20.50268        -1.87027
O         22.67356        36.13043        -2.19732
O         11.46522        25.14571         2.98556
O         30.38104         9.88375        -1.72626
O         25.52321        15.88417        -2.18467
O         32.64908        12.33071        -1.16589
O         17.90537        29.16975         0.32129
O         10.49832        20.01106         2.97615
O         33.08588        33.02527        -0.66584
O         18.53043        33.74877        -2.30469
O         22.06045        33.73248         0.47222
H         22.24206        32.77760         0.60372
O          7.07957        22.47428         5.34212
H          7.97390        22.65497         5.69839
O         31.53720        30.44904         1.51074
H         30.57558        30.24443         1.65020
O         32.85811        14.70753         2.49363
H         31.89972        14.82885         2.70617
O         30.85921        16.06562        -1.76882
H         30.88811        16.96849        -2.15022
O         28.31682        24.47410        -3.32974
H         29.12806        23.95892        -3.52448
O         27.23330        26.85481        -3.65065
H         27.77957        26.06130        -3.86487
O         12.71868        21.08319        -2.09908
H         13.10405        20.53098        -2.81879
O         20.57351        14.17128        -2.74350
H         21.29554        14.57779        -3.26716
O         33.97209        21.33540         1.83304
H         33.70147        20.46200         2.18936
O         40.28737        22.61532         0.00863
H         39.68771        22.52457        -0.77007
O         15.08690         6.94957        -1.58303
H         14.98632         7.69543        -2.21207
O         14.59083        24.77610         1.85380
H         13.96597        24.54624         2.57576
O         23.72749        29.78922        -3.65709
H         24.10119        29.07704        -4.22893
O         23.88083        29.27153        -0.03184
H         24.73554        29.26254         0.51306
O         28.23487        20.77867         1.38265
H         27.34254        20.64962         1.77244
O         24.58815        17.11996         1.08076
H         23.76250        17.54168         1.41407
O         18.58362        31.76083         0.80588
H         18.58145        30.79488         1.03392
O         36.48427        18.79008        -0.93858
H         36.11190        17.98627        -1.37301
O         20.74636        38.22720        -2.05814
H         21.40683        37.68075        -2.54911
O         26.86734        25.70827        -0.16903
H         26.97040        24.84113         0.28064
O         17.79437        36.57488        -2.13564
H         17.82745        35.73144        -2.64441
O         34.90302        16.39550         2.89670
H         34.14825        15.77160         3.05832
O         25.74873        22.68210        -3.16751
H         24.96927        23.01942        -3.68286
O         36.01961        26.67053         2.87708
H         35.10685        26.31610         2.81129
O         30.72743        32.48577        -1.47210
H         31.23170        31.86650        -2.05057
O         31.31217        22.39038         1.21260
H         31.24894        23.25205         1.67481
O         10.83582        11.99913         2.89598
H         11.78006        11.98045         3.19017
O         32.28720        21.35322        -2.14482
H         31.45942        21.18886        -2.65461
O         35.14581        12.66959        -0.93413
H         34.44286        12.80338        -1.61140
O         27.21403        35.85726        -2.21472
H         27.71947        36.71288        -2.22120
O         15.34652        19.41945        -3.26195
H         15.48946        18.61133        -3.80535
O         30.35271        34.79008         3.17502
H         30.88947        34.53080         3.95178
O         16.68204        23.57130         0.66945
H         16.02799        24.00607         1.27541
O         19.66249        14.25809         0.78610
H         18.89929        13.85952         1.25557
O         28.87169        37.89759        -1.41385
H         29.79523        37.56208        -1.46040
O         21.83237        31.62109        -3.55670
H         22.32295        32.48847        -3.69201
O         29.09115        29.17517         1.12305
H         28.09071        29.22086         1.25787
O         14.32392        34.08892        -1.47125
H         13.50875        34.61904        -1.59013
O         32.20553        27.48751         1.22113
H         31.91642        28.40209         1.47097
O         16.08360        32.87705         1.49383
H         17.00210        32.51700         1.58303
O         32.21590        30.27912        -2.08379
H         32.28538        29.48398        -2.65826
O          8.70549        17.10708        -1.27853
H          9.39133        17.20441        -1.97931
O         29.86472        32.37869         2.06280
H         29.62262        33.11747         2.66961
O         25.82883        15.07731         1.23569
H         24.99853        15.49152         1.57601
O         22.98293        24.46660        -0.59519
H         23.84978        24.77373        -0.25661
O         15.23957        24.31983        -2.63251
H         14.94318        25.16227        -3.04324
O         17.62081         5.36153        -1.85928
H         16.81706         5.87349        -2.12174
H          5.29155        18.95446         1.31861
H          4.29049        21.20194         2.50057
H          4.94072        23.32652         3.35714
H          6.40129        24.95404         4.59975
H          7.58316        14.40173         1.56371
H          6.33030        16.47933         1.53656
H          7.76224        26.99728         4.50150
H          8.69366        29.47188         3.50684
H         10.05099         9.94763         1.62964
H          8.68681        12.33148         1.57725
H          9.39500        31.40301         2.52872
H         10.41128        33.50252         2.08994
H         12.71458         5.81828         1.78224
H         11.35687         7.83769         1.54891
H         11.54388        35.64528         1.91550
H         12.77622        37.79197         2.04633
H         14.90962         4.71882         1.72403
H         14.87409        39.06364         1.71898
H         17.23684         4.66033         0.96778
H         17.21728        39.13447         1.03990
H         19.49523         4.27090        -0.26543
H         19.55817        39.20401         0.52784
H         21.89786         4.28030        -0.19727
H         22.00985        39.29715         0.28333
H         24.38188         4.28198        -0.05851
H         24.52092        39.24616         0.42926
H         26.81224         4.30429         0.27966
H         26.99351        39.24764         0.37284
H         29.31756         4.31695         0.66518
H         28.96289        38.79265         1.68357
H         33.80706         5.67059         1.54308
H         31.74786         4.38594         1.19519
H         33.01529        37.52476         3.62436
H         31.35893        39.02993         2.64506
H         35.03623         7.82815         1.64061
H         36.20658         9.94777         1.87419
H         35.91760        33.70199         2.16077
H         34.62101        35.78686         2.43948
H         37.46433        12.08802         2.11511
H         38.71567        14.25695         2.20107
H         38.63014        29.62456         1.89853
H         37.30945        31.70449         1.88229
H         39.93808        16.41701         2.40597
H         41.12498        18.63139         2.81650
H         40.85656        25.30595         2.99437
H         39.84766        27.45887         2.38115
H         42.16889        20.75923         3.27218
H         42.09390        23.21789         3.37029
