         424
 CSIRO Nanostructure Databank - Neutral Graphene Oxide Data Set
C          1.50362         2.05197         2.13092
C          1.43588         3.44382         1.95013
C          2.70578         1.38177         1.99754
C          2.57393         4.19130         1.60631
C          1.35958         6.36847         1.74623
C          1.34790         7.74909         1.69634
C          2.53699         5.63786         1.47090
C          2.50283         8.48476         1.33636
C          1.39032        10.67021         1.80960
C          1.40841        12.05732         1.82591
C          2.50447         9.92854         1.36238
C          2.54836        12.77875         1.42279
C          1.30432        14.99419         1.51709
C          1.31605        16.36541         1.63180
C          2.53352        14.24496         1.34381
C          2.51344        17.11002         1.43044
C          2.61155        18.48102         1.67225
C          3.88842         2.09204         1.64539
C          3.81760         3.50968         1.41708
C          5.12552         1.42464         1.55237
C          4.97992         4.22101         1.01386
C          3.70652         6.35236         1.08064
C          3.68481         7.77854         0.97227
C          4.92385         5.64730         0.80835
C          4.84279         8.49722         0.50570
C          3.67555        10.63159         0.94675
C          3.70424        12.06402         1.00991
C          4.80391         9.91075         0.46395
C          4.92438        12.76860         0.70798
C          3.70464        14.92372         1.10199
C          3.66288        16.38993         0.77922
C          5.02487        14.20429         1.15131
C          4.99193        17.08116         0.90471
C          3.82481        19.16811         1.52464
C          5.01986        18.50461         1.15974
C          6.29736         2.12271         1.20396
C          6.21594         3.51616         0.88009
C          7.57064         1.48131         1.18940
C          7.39131         4.19776         0.46359
C          6.05221         6.35900         0.33083
C          6.03754         7.76755         0.14340
C          7.25402         5.58859        -0.02944
C          7.23173         8.46702        -0.26832
C          5.92382        10.67553        -0.11830
C          6.03089        12.11987         0.18321
C          7.18747         9.92464        -0.49744
C          7.28090        12.81254        -0.05860
C          6.16865        14.95291         0.51535
C          6.14875        16.38346         0.59365
C          7.31547        14.25329         0.12539
C          7.33826        17.17030         0.10519
C          6.26289        19.18370         1.14680
C          7.44583        18.54214         0.73783
C          8.71970         2.19183         0.89143
C          8.63048         3.55342         0.47792
C         10.07992         1.54660         0.99539
C          9.91689         4.33002         0.33683
C          8.50451         6.35406        -0.39984
C          8.46004         7.82253        -0.44605
C          9.80534         5.68960        -0.29476
C          9.67663         8.53033        -0.77408
C          8.46096        10.67455        -0.60315
C          8.44157        12.11362        -0.45307
C          9.63965         9.97285        -0.86452
C          9.72078        12.81626        -0.47385
C          8.57565        14.96845        -0.02393
C          8.62016        16.38893         0.11617
C          9.76511        14.24214        -0.19358
C          9.83598        17.08835         0.08971
C          8.68401        19.18514         0.75778
C          9.88253        18.51443         0.37600
C         10.99253         2.02068        -0.15031
C         11.08376         3.52733        -0.18822
C         12.33516         1.35261        -0.13537
C         12.22977         4.17951        -0.54735
C         10.93531         6.38296        -0.66820
C         10.87203         7.78838        -0.95811
C         12.17459         5.60385        -1.06138
C         12.14688         8.46464        -1.30163
C         10.83514        10.76459        -1.37518
C         10.88977        12.13160        -0.74296
C         12.15603         9.97686        -1.39012
C         12.20784        12.77226        -0.41596
C         11.01795        14.95349        -0.33492
C         11.04809        16.39558        -0.19568
C         12.19496        14.26674        -0.58757
C         12.27253        17.10107        -0.27848
C         11.11056        19.18040         0.36161
C         12.31687        18.50934         0.01913
C         13.51657         2.03945        -0.38862
C         13.49805         3.47943        -0.59389
C         14.76744         1.36158        -0.46085
C         14.69259         4.19584        -0.70998
C         13.47156         6.35386        -0.93087
C         13.45158         7.78372        -1.10013
C         14.65405         5.63773        -0.86812
C         14.63104         8.52466        -1.20736
C         13.43547        10.65742        -1.11891
C         13.39778        12.15987        -1.16595
C         14.63706         9.97120        -1.16742
C         14.71816        12.82966        -0.73311
C         13.37002        15.01222        -1.18463
C         13.47039        16.44319        -0.69890
C         14.67397        14.28375        -1.08531
C         14.66345        17.13872        -0.82756
C         13.55235        19.18087        -0.02853
C         14.74091        18.52298        -0.41259
C         15.97500         2.05904        -0.64861
C         15.96662         3.50605        -0.72181
C         17.21195         1.37708        -0.70082
C         17.18420         4.19967        -0.80446
C         15.92711         6.32784        -1.13263
C         15.91504         7.81710        -1.33489
C         17.18475         5.69193        -0.59400
C         17.19096         8.55295        -1.20466
C         15.92059        10.69352        -1.20883
C         15.94560        12.08617        -1.20887
C         17.16804         9.96384        -1.24053
C         17.17833        12.82087        -1.26597
C         15.89328        14.95924        -1.62125
C         15.88951        16.47426        -1.34252
C         17.18422        14.24250        -1.25502
C         17.18881        17.19013        -1.14898
C         15.98704        19.20730        -0.34533
C         17.20827        18.58399        -0.62856
C         18.43174         2.07114        -0.83731
C         18.42612         3.51489        -0.90982
C         19.66715         1.39020        -0.82880
C         19.64640         4.23023        -1.08882
C         18.43459         6.39227        -1.06290
C         18.41190         7.83201        -1.18826
C         19.60756         5.67188        -1.22130
C         19.65035         8.54986        -1.23764
C         18.40778        10.68035        -1.22798
C         18.41106        12.10429        -1.24700
C         19.64307         9.97003        -1.22327
C         19.64959        12.81337        -1.20953
C         18.40919        14.93853        -1.20689
C         18.45531        16.41375        -0.86280
C         19.62934        14.23838        -1.22117
C         19.65381        17.18691        -1.43775
C         18.45570        19.23175        -0.53642
C         19.68016        18.59558        -0.86653
C         20.89008         2.08842        -0.90645
C         20.89361         3.52484        -1.10155
C         22.11318         1.39788        -0.78100
C         22.13917         4.19286        -1.22599
C         20.84452         6.40025        -1.56369
C         20.89167         7.85115        -1.33275
C         22.16516         5.63448        -1.56027
C         22.12558         8.52948        -1.25056
C         20.88613        10.68336        -1.14181
C         20.87117        12.08343        -1.08005
C         22.13718         9.95297        -1.10256
C         22.09378        12.81317        -0.58972
C         20.90514        14.97902        -1.37994
C         20.95058        16.43957        -1.23080
C         22.19528        14.22029        -1.13263
C         22.14382        17.10087        -1.02678
C         20.90474        19.24048        -0.72306
C         22.15717        18.55220        -0.83853
C         23.34707         2.07943        -0.78875
C         23.36452         3.50783        -1.02240
C         24.56252         1.38718        -0.60999
C         24.61681         4.19207        -1.03522
C         23.39413         6.39871        -1.33066
C         23.38267         7.78947        -1.24998
C         24.67911         5.63069        -1.49357
C         24.62519         8.51627        -1.08443
C         23.36951        10.64791        -0.97523
C         23.39022        12.06730        -0.77321
C         24.61343         9.92813        -0.97307
C         24.58009        12.76417        -0.63044
C         23.38599        14.98112        -0.77187
C         23.38902        16.36824        -0.82891
C         24.57264        14.22565        -0.23488
C         24.62150        17.09085        -0.63589
C         23.36536        19.21495        -0.66132
C         24.62161        18.51914        -0.61638
C         25.79722         2.07080        -0.58275
C         25.81141         3.50818        -0.77235
C         27.00709         1.37784        -0.39631
C         27.07092         4.20911        -0.67565
C         25.89154         6.37171        -1.00286
C         25.86986         7.79941        -0.96162
C         27.07505         5.65811        -0.77667
C         27.07929         8.50945        -0.75184
C         25.84040        10.65532        -0.81987
C         25.83363        12.07231        -0.69107
C         27.08060         9.95002        -0.72461
C         27.06155        12.79404        -0.60867
C         25.86070        14.95242        -0.52719
C         25.85606        16.37107        -0.56925
C         27.07174        14.23536        -0.56859
C         27.09648        17.08417        -0.55588
C         25.84241        19.20976        -0.51081
C         27.08746        18.52337        -0.48921
C         28.24935         2.06213        -0.26675
C         28.25645         3.51701        -0.38769
C         29.42147         1.36705        -0.00037
C         29.51509         4.21294        -0.28120
C         28.30896         6.36618        -0.63528
C         28.31503         7.78947        -0.63997
C         29.52966         5.65614        -0.45513
C         29.55347         8.48506        -0.58727
C         28.28544        10.67073        -0.59093
C         28.29356        12.08650        -0.59155
C         29.55735         9.95145        -0.24934
C         29.54068        12.81332        -0.59502
C         28.31540        14.93895        -0.61335
C         28.32418        16.37572        -0.57529
C         29.53527        14.20974        -0.64949
C         29.56199        17.09394        -0.50556
C         28.31171        19.21370        -0.38255
C         29.55146        18.52409        -0.36998
C         30.66767         2.08225         0.41328
C         30.70832         3.51380        -0.05861
C         31.95448         1.33221         0.21295
C         31.98163         4.17254        -0.11786
C         30.74065         6.36556        -0.43939
C         30.75585         7.77309        -0.56756
C         31.98944         5.67488         0.02997
C         32.05217         8.44421        -0.96201
C         30.79902        10.70118        -0.64560
C         30.80018        12.07743        -0.63956
C         32.06248         9.96108        -0.82774
C         32.04963        12.82824        -0.46728
C         30.82652        14.94393        -0.93731
C         30.80864        16.40707        -0.55901
C         32.02169        14.19655        -0.40491
C         32.00687        17.09525        -0.40905
C         30.78184        19.21289        -0.23923
C         32.01255        18.52152        -0.22243
C         33.15955         2.00215         0.12494
C         33.16241         3.44968        -0.04274
C         34.42615         1.32464         0.26373
C         34.46984         4.11910        -0.22412
C         33.26488         6.39018        -0.31520
C         33.29887         7.75857        -0.42795
C         34.51938         5.62955        -0.33810
C         34.54408         8.47384        -0.24508
C         33.33949        10.67077        -0.46571
C         33.27547        12.10746        -0.12517
C         34.55452         9.89156        -0.12961
C         34.42555        12.77451         0.22940
C         33.15851        14.98154         0.20060
C         33.31026        16.33503        -0.49983
C         34.46064        14.21828         0.24117
C         34.51059        17.08347         0.03469
C         33.24410        19.20283        -0.02683
C         34.47678        18.51156         0.14389
C         35.63912         2.00458         0.37803
C         35.69756         3.43445         0.19740
C         36.86963         1.31838         0.67172
C         36.89394         4.14659         0.33342
C         35.76209         6.32986        -0.00592
C         35.74324         7.75204         0.05955
C         36.93402         5.59484         0.25198
C         36.94268         8.44803         0.38852
C         35.69820        10.56861         0.30076
C         35.62696        12.01206         0.73160
C         36.92597         9.87171         0.51720
C         36.93796        12.72051         0.52370
C         35.65356        14.90300         0.28008
C         35.68902        16.36425         0.30166
C         36.92822        14.15431         0.26425
C         36.88318        17.04908         0.67033
C         35.65824        19.19507         0.50184
C         36.85776        18.49164         0.80683
C         38.06654         1.99472         0.77135
C         38.11909         3.43578         0.60422
C         39.29498         1.30456         1.14337
C         39.32461         4.12430         0.73546
C         38.14706         6.29424         0.53992
C         38.14898         7.71983         0.61711
C         39.35296         5.56114         0.78045
C         39.34878         8.42232         0.94921
C         38.12036        10.57822         0.84160
C         38.12811        12.03229         0.79035
C         39.33680         9.85365         1.06460
C         39.33976        12.75472         1.06821
C         38.22504        14.92395         0.52826
C         38.12029        16.35409         0.88856
C         39.38051        14.15518         1.02769
C         39.25107        17.00165         1.37266
C         37.98544        19.16152         1.28836
C         39.15252        18.42593         1.86662
C         40.48279         1.93793         1.17653
C         40.63025         3.36586         0.72537
C         41.72186         4.11532         1.44109
C         40.53999         6.24771         1.14083
C         40.55011         7.68682         1.20283
C         41.69011         5.46364         1.55062
C         41.72096         8.41461         1.52306
C         40.52991        10.54113         1.42318
C         40.47497        12.02031         1.74785
C         41.69975         9.80170         1.63944
C         41.77201        12.77017         1.59769
C         40.56524        14.88390         1.35457
C         40.52837        16.31898         1.44456
C         41.78424        14.12418         1.50210
C         41.69004        17.09648         1.58210
C         40.43623        19.18158         1.68535
C         41.62401        18.51854         1.58559
O         21.72043        14.42704        -2.48980
O         37.82288        14.58620        -0.82911
O         16.57109        17.14701        -2.46725
O         32.91787        10.53018        -1.88650
O         15.98835         6.86660        -2.48016
O         21.47534         5.96984        -2.81781
O         12.16960         9.14287        -2.61786
O          6.20675        10.33179        -1.52037
O          7.63954         5.72254        -1.44328
O         34.60892         4.76711        -1.54641
O         14.91252        12.79076         0.72235
H         14.02862        12.79157         1.16879
O         21.88503        12.99108         0.85319
H         22.16843        12.16944         1.30608
O         29.60548         9.95925         1.24150
H         28.76571         9.56227         1.55861
O         12.35585        12.48496         1.04105
H         11.64283        12.98016         1.49910
O         30.56289         2.20126         1.91165
H         31.41843         2.57035         2.22212
O          7.05893        17.41709        -1.32180
H          6.13426        17.74030        -1.38751
O         24.45921        14.21895         1.23884
H         24.44026        15.15474         1.53256
O          5.37672        14.14654         2.59122
H          6.20681        13.62970         2.66801
O         10.29886         4.62680         1.73893
H         10.42895         3.74910         2.18562
O         30.95352        14.93862        -2.40353
H         31.20943        14.03239        -2.67836
O         18.56770        16.45077         0.58939
H         19.35087        15.92288         0.85322
O         17.11218         5.90082         0.86105
H         17.85720         5.41170         1.26978
O         33.58267        16.04307        -1.89786
H         33.52411        16.87982        -2.40367
O         19.44123        17.27474        -2.86842
H         20.23128        17.69095        -3.27104
O          3.37783        16.45871        -0.68380
H          2.48184        16.07918        -0.81521
O         38.90528        18.35011         3.33918
H         38.02766        17.92798         3.45924
O         32.77007        15.26770         1.57797
H         32.75354        14.41857         2.06808
O         40.15766        12.06477         3.19799
H         40.20085        13.00541         3.47409
O         10.67406         1.92039         2.25413
H         11.60954         1.62514         2.24142
O         41.05545         3.29666        -0.68755
H         41.11420         4.21923        -1.01553
O         10.30013         1.60861        -1.37352
H         10.80600         1.96429        -2.13491
O         12.01024         5.41724        -2.51531
H         12.15847         6.28628        -2.94789
O         10.56610        11.07011        -2.78977
H         10.73419        10.23485        -3.28868
O         13.09615        15.13729        -2.62621
H         13.19205        14.22545        -3.00564
O         24.85707         5.53026        -2.96128
H         24.71150         6.42329        -3.34047
O         31.92691         5.83789         1.51581
H         31.07960         5.43791         1.81120
O         32.10924         8.16892        -2.39776
H         32.68804         8.86298        -2.79312
O         13.19626        12.46554        -2.57705
H         12.35391        12.03047        -2.86536
O         15.81343        14.79197        -3.07596
H         16.19670        15.61570        -3.46621
O         35.43375        11.97287         2.20329
H         36.17446        11.44882         2.57896
H          0.59147         1.49927         2.39595
H          0.46479         3.93810         2.08483
H          2.76180         0.29612         2.16099
H          0.43735         5.84628         2.03226
H          0.41600         8.27288         1.94511
H          0.48215        10.15675         2.15077
H          0.51437        12.58908         2.17695
H          0.35835        14.45675         1.66460
H          0.39628        16.89947         1.91468
H          1.72363        19.02898         2.02265
H          5.17844         0.34793         1.77130
H          3.86447        20.24490         1.74348
H          7.63612         0.41860         1.46682
H          6.30339        20.23449         1.47297
H          9.97803         0.42680         0.95498
H          8.74733        20.22848         1.10416
H         12.35994         0.25575        -0.04054
H         11.14621        20.25431         0.59846
H         14.78770         0.26639        -0.35962
H         13.59568        20.24641         0.24227
H         17.22486         0.28019        -0.61796
H         15.98651        20.25466        -0.00620
H         19.67944         0.29574        -0.71828
H         18.48703        20.27304        -0.17800
H         22.10136         0.30691        -0.63962
H         20.92217        20.29617        -0.40933
H         24.54619         0.29570        -0.47311
H         23.36661        20.30850        -0.53778
H         26.98774         0.28318        -0.28625
H         25.83839        20.30912        -0.46636
H         29.39277         0.27000         0.08578
H         28.30749        20.31116        -0.30469
H         31.94797         0.24463         0.38429
H         30.77649        20.30747        -0.12852
H         34.41605         0.23008         0.37749
H         33.23206        20.29711         0.08749
H         36.84260         0.22958         0.82988
H         35.63759        20.28906         0.61514
H         39.22162         0.24183         1.42127
H         37.94859        20.25473         1.41168
H         41.39659         1.39369         1.45965
H         42.60911         3.55505         1.77249
H         42.54596         5.97966         2.00859
H         42.66720         7.88906         1.70675
H         42.62773        10.31047         1.93388
H         42.72588        12.23525         1.70625
H         42.74725        14.65433         1.50973
H         42.67893        16.61953         1.59721
H         40.40407        20.28078         1.68869
H         42.56460        19.08505         1.51787
