         244
 CSIRO Nanostructure Databank - Neutral Graphene Oxide Data Set
C          1.25266         2.04169         0.47995
C          1.21410         3.47184         0.35254
C          2.42695         1.34499         0.39448
C          2.33618         4.19746         0.04301
C          1.15718         6.37266        -0.16836
C          1.16102         7.76251        -0.31366
C          2.35386         5.64897        -0.09562
C          2.35748         8.47707        -0.41602
C          1.16189        10.59066        -1.19477
C          1.22211        11.88506        -1.55564
C          2.33893         9.98750        -0.44840
C          2.38854        12.69195        -1.19483
C          1.28883        14.74549        -0.25760
C          1.42972        15.81922         0.54705
C          2.26787        14.18693        -1.28494
C          2.61018        16.67319         0.70681
C          2.76526        17.45081         1.92464
C          3.67070         2.02474         0.14182
C          3.61988         3.47619        -0.29866
C          4.88169         1.38830         0.25478
C          4.82439         4.20993         0.30017
C          3.60022         6.37025        -0.16104
C          3.59413         7.79150        -0.32329
C          4.84078         5.69238        -0.00204
C          4.84738         8.52160        -0.31485
C          3.62366        10.59181        -1.01650
C          3.55312        12.09999        -0.83018
C          4.87309         9.92860        -0.49430
C          4.74393        12.83659        -0.25946
C          3.61620        14.82915        -1.16105
C          3.59428        16.80230        -0.23572
C          4.76076        14.32049        -0.63398
C          4.91222        17.45248        -0.04532
C          3.89611        18.17547         2.17516
C          5.03264        18.14256         1.29163
C          6.14532         2.06440         0.03893
C          6.13757         3.56688        -0.17569
C          7.33308         1.40735        -0.01823
C          7.33835         4.23390         0.49733
C          6.06491         6.39521         0.02260
C          6.07134         7.82435        -0.12615
C          7.32095         5.72425         0.23136
C          7.29417         8.55340        -0.03665
C          6.07331        10.65598        -0.38055
C          6.04199        12.14018        -0.72540
C          7.27433         9.96965        -0.11589
C          7.26480        12.93192        -0.31745
C          6.01750        15.10358        -0.46063
C          6.08294        16.46944        -0.23695
C          7.26633        14.30447        -0.41078
C          7.38776        17.26185        -0.19948
C          6.24915        18.69585         1.60517
C          7.42705        18.36985         0.85077
C          8.59631         2.13109        -0.41577
C          8.61843         3.56898         0.06454
C          9.86063         1.41210        -0.02621
C          9.78968         4.24165         0.22317
C          8.51668         6.43020         0.28865
C          8.54120         7.85205         0.16231
C          9.77942         5.68457         0.67534
C          9.78941         8.55547         0.17576
C          8.50106        10.69343         0.38280
C          8.50103        12.20113         0.10021
C          9.81105         9.97828         0.05623
C          9.81721        12.86753        -0.14879
C          8.56076        15.05855        -0.69795
C          8.63526        16.43050        -0.10055
C          9.83651        14.29191        -0.48927
C          9.81941        17.05980         0.13818
C          8.63213        18.97895         1.11710
C          9.87021        18.43673         0.61281
C         11.04510         2.09028         0.10403
C         11.05862         3.55319         0.10782
C         12.29458         1.39514         0.33652
C         12.25406         4.25750         0.12234
C         11.04803         6.42627         0.32003
C         11.02560         7.81452         0.22591
C         12.27791         5.69066         0.20072
C         12.31546         8.58141         0.39960
C         11.02813        10.67424        -0.15695
C         11.05495        12.09120        -0.29944
C         12.30373         9.97126        -0.17667
C         12.25189        12.78646        -0.55919
C         11.04998        14.93182        -0.39815
C         11.10415        16.34808         0.01515
C         12.28430        14.19216        -0.48415
C         12.40505        17.10966        -0.05708
C         11.07340        19.11287         0.67596
C         12.34910        18.59068         0.24156
C         13.49923         2.05640         0.28369
C         13.51402         3.49096        -0.19798
C         14.74993         1.39144         0.48733
C         14.76961         4.23025         0.16282
C         13.51718         6.39043         0.06807
C         13.54889         7.80455         0.03898
C         14.76203         5.63740         0.08315
C         14.74269         8.51522        -0.22111
C         13.49602        10.61382        -0.46594
C         13.46720        12.02235        -1.01014
C         14.76691         9.91700        -0.43036
C         14.76316        12.78589        -0.84084
C         13.51621        14.92021        -0.65174
C         13.53690        16.32882        -0.63802
C         14.74443        14.18140        -0.85678
C         14.77592        16.99025        -0.92825
C         13.45482        19.40292         0.43097
C         14.76970        19.03678        -0.04985
C         15.96310         2.07453         0.47542
C         15.97506         3.52390         0.34318
C         17.21888         1.39848         0.62322
C         17.20128         4.23204         0.45077
C         15.99304         6.33043         0.11696
C         15.99491         7.74650        -0.30943
C         17.19444         5.63929         0.32538
C         17.28115         8.49008        -0.39825
C         16.00565        10.64225        -0.65784
C         15.98792        12.04308        -0.85905
C         17.28637         9.96269        -0.53948
C         17.25913        12.73637        -1.18712
C         16.00695        14.94361        -0.99800
C         15.99746        16.39545        -0.74738
C         17.30583        14.24222        -1.18038
C         17.28907        17.19073        -0.75455
C         16.00268        19.17053         0.51662
C         17.23117        18.50708         0.05932
C         18.41993         2.08133         0.69449
C         18.44956         3.52833         0.64933
C         19.69063         1.37047         0.72886
C         19.66490         4.21678         0.71038
C         18.45916         6.38500         0.49886
C         18.50196         7.84516         0.16475
C         19.72942         5.63664         0.52097
C         19.79555         8.48977        -0.10168
C         18.52413        10.58710        -0.62677
C         18.56127        11.99027        -1.09378
C         19.79040         9.86831        -0.43817
C         19.83805        12.78079        -1.02197
C         18.54700        14.95849        -0.74066
C         18.48001        16.29008        -0.37619
C         19.79985        14.22051        -0.67716
C         19.71740        16.93652         0.11264
C         18.39413        19.11400         0.41606
C         19.70400        18.43074         0.40044
C         20.86666         2.01617         0.85692
C         20.93085         3.49762         1.10896
C         22.15134         4.16939         0.53254
C         20.94392         6.30029         0.31328
C         20.98930         7.73665         0.03932
C         22.15075         5.48870         0.23646
C         22.21080         8.42416        -0.14399
C         21.03858        10.52967        -0.55824
C         21.12080        12.00240        -0.78303
C         22.22406         9.78649        -0.41696
C         22.25178        12.75615        -0.22742
C         21.00853        14.87098        -0.40791
C         21.01780        16.30136        -0.16310
C         22.21543        14.11117        -0.16945
C         22.16911        17.06147        -0.09596
C         20.95102        19.16031         0.19716
C         22.12596        18.48437         0.02710
O          3.52476        16.20188        -1.50652
O         18.35066         7.41803         1.56618
O         16.65959        14.78179        -2.38395
O         14.69738        18.33800        -1.26669
O          9.17729        12.84639         1.24523
O         20.73967        12.44618        -2.12904
O         19.69090        17.44163         1.50466
O         11.96625        16.45226         1.20569
O         17.88792        12.16718        -2.38797
O         16.73196         7.85830        -1.60835
O         17.56132        17.57344        -2.13159
H         17.38427        16.77493        -2.68315
O          8.59862         2.15630        -1.88742
H          9.32568         2.75055        -2.17008
O          3.64625        10.35048        -2.44907
H          4.39378        10.88150        -2.80873
O          8.38189        10.54233         1.83925
H          8.79191        11.35229         2.23002
O          2.27975        10.43204         0.94425
H          1.49794        10.01275         1.36132
O          4.99616        18.48800        -1.08768
H          4.55859        18.11085        -1.88299
O          7.29416         4.06132         1.94853
H          8.09419         4.52066         2.31015
O         13.30616        11.88297        -2.46950
H         14.13929        11.50221        -2.82241
O          1.72151        14.50660        -2.58978
H          1.89466        15.46183        -2.73810
O          8.47092        15.28433        -2.15727
H          8.07848        16.18316        -2.28869
O          9.74231         5.61686         2.15464
H          9.89054         6.52618         2.49414
O          3.70799         3.50004        -1.75717
H          2.93967         3.00217        -2.10759
O         13.53443         3.40379        -1.67234
H         14.35756         2.93335        -1.92410
O          4.65822         4.06412         1.72808
H          5.54187         4.18508         2.15684
O          4.64724        12.73887         1.18255
H          4.08674        11.96290         1.40345
O         12.40620         8.78469         1.87302
H         11.67772         9.39494         2.12020
O          7.50833        17.89248        -1.52566
H          6.69702        18.45596        -1.62318
O          6.32794         3.86049        -1.57385
H          5.52663         3.55375        -2.05948
O         21.04703         3.64734         2.57303
H         21.01552         4.60877         2.76642
O          5.97789        12.19360        -2.19104
H          6.87758        12.04140        -2.54989
H          0.31602         1.51327         0.70659
H          0.25743         3.97505         0.55498
H          2.44400         0.25926         0.57222
H          0.19180         5.85089        -0.11837
H          0.19759         8.29075        -0.34831
H          0.26801         9.99014        -1.41643
H          0.38914        12.37922        -2.07522
H          0.32650        14.20940        -0.22433
H          0.59346        16.05544         1.22641
H          1.94277        17.44151         2.65379
H          4.90707         0.31639         0.51042
H          3.98835        18.74301         3.11251
H          7.37256         0.31324         0.10635
H          6.36146        19.30757         2.51413
H          9.85720         0.31104        -0.01259
H          8.67075        19.84666         1.79391
H         12.26276         0.31609         0.55327
H         11.06759        20.15034         1.04592
H         14.74354         0.30732         0.68014
H         13.31200        20.36810         0.94345
H         17.21975         0.29844         0.66415
H         16.09698        19.78246         1.42701
H         19.66710         0.27615         0.61074
H         18.35356        20.08469         0.93690
H         21.81193         1.45262         0.86971
H         23.08377         3.58907         0.46401
H         23.08214         5.95659        -0.11246
H         23.16918         7.89755        -0.04877
H         23.19336        10.28942        -0.53725
H         23.13684        12.21719         0.13865
H         23.09709        14.64727         0.20795
H         23.15055        16.59153        -0.24942
H         20.91884        20.25743         0.13101
H         23.06528        19.04364        -0.08959
