         404
 CSIRO Nanostructure Databank - Neutral Graphene Oxide Data Set
C          1.42007         1.85371         0.47556
C          1.37974         3.24501         0.47358
C          2.62851         1.17759         0.28671
C          2.55616         4.00577         0.30459
C          1.31320         6.17550         0.49491
C          1.27168         7.55467         0.54083
C          2.53560         5.47754         0.32527
C          2.45273         8.33185         0.46920
C          1.19092        10.50017         0.58232
C          1.16642        11.88147         0.54654
C          2.40727         9.77784         0.49141
C          2.35647        12.63886         0.39263
C          1.14505        14.83971         0.61871
C          1.14315        16.22657         0.65585
C          2.32853        14.10831         0.35403
C          2.31883        16.96397         0.39201
C          2.36818        18.40107         0.59005
C          3.81619         1.89844         0.11742
C          3.77760         3.30836         0.14697
C          5.08797         1.15630        -0.23892
C          5.03555         4.06544        -0.04752
C          3.71957         6.23757         0.21933
C          3.70202         7.65670         0.34298
C          5.01180         5.56785        -0.03005
C          4.93478         8.41092         0.35103
C          3.61781        10.51291         0.37804
C          3.57408        11.93401         0.30999
C          4.88201         9.81295         0.34989
C          4.83435        12.65581         0.03275
C          3.50714        14.84238         0.08114
C          3.49571        16.25293         0.06335
C          4.78783        14.14494        -0.16490
C          4.71450        16.99714        -0.31251
C          3.51563        19.11450         0.46802
C          4.74504        18.50691        -0.06985
C          6.34846         1.86869         0.22490
C          6.30925         3.39130         0.33253
C          7.65119         1.27814        -0.02705
C          7.56216         4.15503         0.26566
C          6.26930         6.29473         0.23992
C          6.22129         7.70858         0.38265
C          7.50126         5.59901         0.28752
C          7.42355         8.41930         0.57288
C          6.10423        10.59230         0.44585
C          6.09747        11.96355         0.37540
C          7.35114         9.87899         0.80396
C          7.32808        12.76548         0.56690
C          6.03846        14.94539        -0.11930
C          6.01553        16.29888        -0.26894
C          7.30816        14.24926         0.17909
C          7.24710        17.09213        -0.59599
C          6.05383        19.11993         0.18405
C          7.27308        18.53331        -0.14043
C          8.82395         2.02189         0.11158
C          8.78089         3.46823         0.28746
C         10.08902         1.38308        -0.04279
C         10.02375         4.19578         0.37239
C          8.72319         6.33238         0.40207
C          8.68794         7.75503         0.52759
C          9.97948         5.64877         0.42346
C          9.92373         8.48095         0.58536
C          8.63158        10.66817         0.89513
C          8.63392        12.10051         0.55412
C          9.92510         9.92359         0.88794
C          9.82226        12.82371         0.36826
C          8.55949        14.86585        -0.23889
C          8.52899        16.23777        -0.77497
C          9.78528        14.23748         0.00221
C          9.81593        16.91058        -0.87349
C          8.45319        19.27646         0.20033
C          9.75692        19.01890        -0.29676
C         11.29459         2.08711         0.07884
C         11.24064         3.50349         0.36345
C         12.54332         1.42534        -0.12719
C         12.50491         4.22561         0.56119
C         11.16514         6.40274         0.36529
C         11.15324         7.82574         0.40090
C         12.47257         5.72859         0.46015
C         12.41154         8.57526         0.26577
C         11.18751        10.71702         0.69207
C         11.09684        12.16331         0.40227
C         12.40737         9.99151         0.30248
C         12.28885        12.86355         0.15640
C         11.02763        14.96282        -0.12834
C         11.02909        16.38013        -0.42867
C         12.25863        14.29655        -0.01001
C         12.24516        17.15570        -0.33473
C         11.01566        19.31169         0.16942
C         12.22708        18.68435        -0.51538
C         13.78723         2.08412        -0.08251
C         13.81002         3.50580         0.33876
C         15.00246         1.45078        -0.38481
C         15.05179         4.31265         0.03222
C         13.61669         6.42836        -0.23829
C         13.62895         7.91272        -0.00925
C         14.96996         5.78017        -0.13065
C         14.83477         8.63331        -0.23438
C         13.58576        10.73464         0.06272
C         13.54079        12.17323         0.05799
C         14.81298        10.05786        -0.17802
C         14.74394        12.91112        -0.07664
C         13.47996        15.03960        -0.04556
C         13.45238        16.48146        -0.09375
C         14.71307        14.34728        -0.02070
C         14.70457        17.19380         0.06532
C         13.49626        19.33534        -0.04686
C         14.68888        18.64806         0.11515
C         16.24372         2.16282        -0.50261
C         16.24126         3.59272        -0.44775
C         17.46435         1.50574        -0.77152
C         17.41165         4.32718        -0.69535
C         16.08059         6.51186        -0.51421
C         16.06118         7.95275        -0.54504
C         17.31071         5.79515        -0.91863
C         17.25628         8.71496        -0.82541
C         16.01545        10.80396        -0.40243
C         15.98318        12.24124        -0.27040
C         17.20735        10.14701        -0.73998
C         17.20413        12.97752        -0.21082
C         15.94500        15.06297         0.09556
C         15.91554        16.50774         0.19120
C         17.16055        14.36602         0.10501
C         17.16746        17.22494         0.30744
C         15.91637        19.34731         0.29396
C         17.15091        18.66970         0.34083
C         18.67713         2.23012        -0.90569
C         18.63188         3.65960        -0.87519
C         19.93540         1.58546        -1.06600
C         19.88901         4.42972        -0.87296
C         18.52822         6.59932        -1.25070
C         18.47050         8.07060        -1.15283
C         19.85546         5.93748        -1.03651
C         19.67115         8.80997        -1.57675
C         18.33989        11.02023        -1.24069
C         18.44676        12.32596        -0.47209
C         19.67927        10.30858        -1.42826
C         19.67708        13.01954        -0.30531
C         18.41017        15.04779         0.57484
C         18.39056        16.54088         0.36849
C         19.67994        14.38215         0.11990
C         19.62143        17.24604         0.40550
C         18.37610        19.37023         0.42093
C         19.60978        18.68676         0.43232
C         21.15631         2.30390        -1.18780
C         21.15355         3.74055        -1.13463
C         22.39185         1.64075        -1.34543
C         22.33334         4.48566        -1.28662
C         21.09568         6.63197        -1.42230
C         21.01854         8.09826        -1.68865
C         22.28238         5.93349        -1.45063
C         22.24893         8.88545        -1.40117
C         20.97049        10.99943        -1.08567
C         20.94254        12.37239        -0.53097
C         22.22578        10.20887        -0.99436
C         22.15008        13.02860        -0.28668
C         20.87726        15.10389         0.20944
C         20.86487        16.53916         0.39181
C         22.13483        14.43322         0.04778
C         22.08538        17.25429         0.45126
C         20.84099        19.38454         0.47598
C         22.06582        18.69579         0.49672
C         23.60698         2.36366        -1.43032
C         23.58377         3.79803        -1.39958
C         24.84992         1.69207        -1.56326
C         24.81555         4.52170        -1.47730
C         23.54997         6.64438        -1.72380
C         23.53734         8.20962        -1.58653
C         24.81224         5.96507        -1.50330
C         24.76181         8.84199        -1.09996
C         23.44577        10.89800        -0.66011
C         23.41466        12.29710        -0.35128
C         24.69279        10.20247        -0.67592
C         24.61531        12.96742        -0.08572
C         23.33303        15.16154         0.18270
C         23.34183        16.56812         0.44131
C         24.59585        14.43954        -0.00113
C         24.56114        17.29046         0.71777
C         23.29814        19.39351         0.47945
C         24.53855        18.74936         0.62373
C         26.05771         2.40571        -1.66545
C         26.02823         3.83233        -1.61064
C         27.31245         1.72702        -1.79751
C         27.28131         4.60933        -1.90506
C         26.01312         6.70519        -1.35893
C         25.98296         8.12248        -1.05209
C         27.25687         6.01928        -1.37036
C         27.17656         8.76256        -0.59983
C         25.90189        10.87182        -0.30495
C         25.86519        12.26300         0.00023
C         27.13692        10.15738        -0.21734
C         27.05549        12.90004         0.45034
C         25.84513        15.15192         0.43825
C         25.75479        16.53770         0.94034
C         26.97316        14.29951         0.90387
C         26.95418        17.08308         1.43197
C         25.71390        19.55243         0.40908
C         26.97843        19.17581         0.87668
C         28.53852         2.40465        -1.72832
C         28.53937         3.85485        -1.57157
C         29.76305         1.68923        -1.69285
C         29.69586         4.53804        -1.29426
C         28.44847         6.68388        -1.02723
C         28.41079         8.04743        -0.57427
C         29.69843         5.96653        -0.98908
C         29.61129         8.67409        -0.12258
C         28.29990        10.80618         0.26079
C         28.26620        12.18106         0.61365
C         29.50700         9.97278         0.63191
C         29.50048        12.84886         1.04465
C         28.24181        15.01137         1.31462
C         28.23075        16.48475         1.27190
C         29.50640        14.27446         1.23753
C         29.41015        17.22651         1.00933
C         28.25247        19.42936         0.34629
C         29.41674        18.61857         0.54172
C         30.99803         2.34174        -1.49938
C         30.98157         3.81661        -1.38602
C         32.20356         1.64810        -1.33221
C         32.21339         4.50269        -0.90985
C         30.85344         6.62088        -0.55706
C         30.83744         7.99725        -0.15557
C         32.07817         5.82522        -0.17612
C         32.08374         8.66834         0.25802
C         30.80457        10.74563         0.69598
C         30.71971        12.12443         1.04688
C         32.03692        10.06668         0.64300
C         31.96486        12.80548         1.42286
C         30.67070        15.04811         1.23309
C         30.64010        16.48305         0.98124
C         31.93756        14.35084         1.46715
C         31.82412        17.10013         0.50453
C         30.60968        19.14247        -0.01303
C         31.81063        18.40704        -0.10924
C         33.41320         2.28755        -0.90034
C         33.40959         3.68716        -0.62285
C         34.59038         1.55246        -0.62660
C         34.55309         4.32282        -0.12746
C         33.37522         6.61387        -0.37789
C         33.30960         8.00720         0.22164
C         34.48251         5.76848         0.23294
C         34.54709         8.65449         0.60769
C         33.28798        10.76659         0.91785
C         33.25315        12.11007         1.25538
C         34.56378        10.05695         0.90013
C         34.49721        12.84990         1.58669
C         33.20583        15.06485         1.13098
C         32.99059        16.30083         0.32754
C         34.50574        14.31795         1.24475
C         33.84311        16.68715        -0.68301
C         32.95066        18.89598        -0.81837
C         34.02869        18.03341        -1.13860
C         35.75159         2.17740        -0.12745
C         35.73333         3.58743         0.08917
C         36.90036         1.39826         0.28387
C         36.96071         4.28596         0.49134
C         35.68618         6.46321         0.75053
C         35.74386         7.93143         0.78683
C         36.91883         5.69721         0.92608
C         36.96793         8.55042         1.18170
C         35.79464        10.68834         1.18082
C         35.82683        12.11987         1.52309
C         37.04170         9.98370         1.25609
C         37.12447        12.81407         1.28732
C         35.74436        14.75258         0.55614
C         35.70583        15.60789        -0.51878
C         37.07662        14.32998         1.12400
C         36.72613        16.53745        -0.85338
C         35.24500        18.37429        -1.81236
C         36.49080        17.65274        -1.77807
C         38.01001         1.96692         0.87304
C         38.15211         3.43597         0.89406
C         39.08559         1.21209         1.47316
C         39.14108         4.04151         1.79482
C         38.00470         6.31505         1.49829
C         38.07080         7.75781         1.61511
C         39.02392         5.45856         2.13918
C         39.24573         8.39786         2.11324
C         38.30258        10.64542         1.48033
C         38.31966        12.12412         1.31037
C         39.41210         9.83154         1.92246
C         39.56927        12.91452         0.99812
C         38.17035        14.88689         0.23951
C         37.97374        16.15756        -0.30734
C         39.50279        14.26657         0.27652
C         39.36572        16.53939        -1.85140
C         37.50232        17.97513        -2.71191
C         38.70236        17.19097        -2.92081
C         40.11360         1.82735         2.13248
C         40.14150         3.26051         2.34883
C         41.25726         3.91389         3.00223
C         40.15420         6.12408         2.89258
C         40.26005         7.60679         2.76731
C         41.32511         5.26559         3.15181
C         41.35193         8.22585         3.35817
C         40.71092        10.31908         2.31978
C         40.90193        12.27933         0.89747
C         41.58242         9.58114         3.11823
C         41.90112        12.74959         0.08911
C         40.50196        14.53783        -0.82036
C         40.18537        15.40414        -1.98466
C         41.64296        13.77800        -0.87024
C         40.60056        15.10648        -3.29865
C         39.20126        16.89458        -4.21475
C         40.15759        15.89170        -4.37546
O          9.73950        18.16094        -1.45523
O         12.62210         5.08877         1.74988
O         34.58425         5.94772         1.68834
O         31.89210         4.53703        -2.34291
O         19.95566         5.34686         0.30318
O          6.19085         2.54229         1.51859
O         20.22738         8.40447        -2.88153
O          5.08478         4.79781        -1.31153
O         34.08026        15.25026         2.29964
O         39.09191        16.97119        -0.54816
O         20.44418        10.96388        -2.48185
O         34.55017        15.65493        -1.30027
O          7.85820        10.33459         2.11043
O         17.69385         6.06621        -2.33948
O         41.30709        11.49221         1.94455
O         14.75121         3.80322         1.40470
O         31.93183        13.56593         2.68180
O          4.81649        13.24216        -1.33831
O         38.09139         4.05631        -0.44006
O         38.96132         5.67403         3.61085
O         26.93318        18.34271         2.01956
O          4.57417        17.93285        -1.41791
O         39.88291        14.17958         1.71786
O         25.53863        15.04261        -0.98385
O          7.67809        16.65409        -1.91372
O         35.17327        12.45371         2.81220
O         23.59307         7.53060        -2.88053
O         10.74158        10.30949         2.04782
O          7.25951        13.81564         1.59841
O         27.29134        14.47625         2.31723
O         13.25615         6.24523        -1.66908
H         13.91549         6.73610        -2.20656
O         31.91042         5.50730         1.22738
H         32.67956         5.84299         1.74328
O         33.63015         6.77897        -1.79149
H         33.12212         6.10490        -2.29777
O         18.40928        14.86928         2.05117
H         17.59212        15.29147         2.39336
O         29.25004         9.55937         2.02857
H         29.22991        10.37340         2.57680
O         12.19411        18.95887        -1.94785
H         11.29090        18.72107        -2.26591
O         27.30859         4.73857        -3.38034
H         28.13363         5.21390        -3.61715
O          5.14480         0.99772        -1.66964
H          4.97900         1.86953        -2.08563
O         17.90677        11.42052        -2.58231
H         18.72937        11.60551        -3.09415
O         37.26341        14.92564         2.43871
H         38.20631        14.77268         2.68404
H          0.49059         1.28345         0.60963
H          0.40865         3.73924         0.60584
H          2.64872         0.07912         0.25570
H          0.36774         5.62385         0.57291
H          0.29533         8.04594         0.64333
H          0.23761         9.96361         0.67647
H          0.19522        12.38951         0.61162
H          0.20739        14.30977         0.83275
H          0.21612        16.76374         0.90263
H          1.45446        18.89487         0.95303
H          5.05967         0.12542         0.19631
H          3.54431        20.17486         0.76058
H          7.70352         0.23989        -0.38638
H          6.05986        20.13245         0.61710
H         10.11361         0.30167        -0.24308
H          8.30305        20.17682         0.81540
H         12.52307         0.35400        -0.37894
H         11.14968        19.90251         1.08545
H         14.99848         0.37224        -0.60296
H         13.50816        20.43566        -0.01343
H         17.48627         0.40792        -0.83014
H         15.90288        20.44699         0.32581
H         19.96794         0.48612        -1.08924
H         18.36713        20.46964         0.45714
H         22.41540         0.54192        -1.38440
H         20.83812        20.48439         0.49322
H         24.86447         0.59279        -1.59526
H         23.27932        20.48969         0.38765
H         27.31138         0.62929        -1.87295
H         25.60604        20.45156        -0.21681
H         29.74026         0.59151        -1.76652
H         28.34902        20.26061        -0.36943
H         32.20509         0.55364        -1.44808
H         30.57393        20.14855        -0.45773
H         34.59446         0.46480        -0.79225
H         32.95769        19.94193        -1.15888
H         36.82955         0.30218         0.21178
H         35.26333        19.33291        -2.35631
H         39.06594         0.11571         1.38603
H         37.23050        18.68188        -3.51406
H         40.92526         1.22286         2.56305
H         42.12593         3.29443         3.27122
H         42.26547         5.71983         3.49532
H         42.07716         7.65168         3.94792
H         42.50857        10.05962         3.46002
H         42.90289        12.30791         0.16115
H         42.39616        13.97065        -1.64685
H         41.25933        14.24846        -3.49280
H         38.78081        17.40183        -5.09440
H         40.51436        15.65207        -5.38680
