         260
 CSIRO Nanostructure Databank - Neutral Graphene Oxide Data Set
C         30.40740        31.64892        -0.19304
C         30.53224        32.88770        -0.53000
C         30.48636        36.08083        -1.05459
C         30.54550        37.23865        -1.50608
C         30.63108        40.53841        -1.89821
C         30.77046        41.81941        -1.94068
C         32.76557        28.89828         0.61919
C         31.67892        29.48940         0.44813
C         32.80867        31.42404        -0.49128
C         31.47399        30.79158        -0.08847
C         32.87883        32.95406        -0.73544
C         31.58692        33.73310        -0.68285
C         32.93032        35.90220        -0.94048
C         31.62115        35.14044        -1.07779
C         32.86590        37.43993        -0.74818
C         31.69945        38.14188        -1.51504
C         32.94893        40.26300        -0.87645
C         31.75625        39.64607        -1.54258
C         32.85996        41.43914        -0.18544
C         30.73317        43.17032        -1.92824
C         32.66408        44.38180        -0.61981
C         31.81923        43.76656        -1.33027
C         35.48796        27.42930         1.36896
C         35.29062        28.75033         0.83875
C         34.10586        29.35064         0.46380
C         35.40214        31.51504        -0.04369
C         34.10751        30.69283        -0.18752
C         35.29058        32.99826        -0.05129
C         34.14469        33.69143        -0.39514
C         35.24036        35.90822        -0.08971
C         34.11832        35.17335        -0.38720
C         35.38838        37.34899        -0.50145
C         34.21697        38.11229        -1.02262
C         35.44115        40.28222        -0.35280
C         34.30917        39.65390        -1.19822
C         35.37421        41.76521        -0.25372
C         34.00284        42.37906        -0.15662
C         35.05055        44.63927         0.24188
C         33.75746        43.83304         0.28904
C         35.18257        45.87651         0.98877
C         37.85678        27.34658         1.75265
C         36.51830        26.76732         1.56461
C         37.81304        28.81377         1.29634
C         36.55101        29.48646         0.85129
C         37.82107        31.61697         0.70045
C         36.58066        30.84945         0.57975
C         37.77532        32.98708         0.56962
C         36.46665        33.75678         0.54224
C         37.80960        35.96116         0.06892
C         36.53655        35.18283         0.00359
C         37.76186        37.39206         0.54237
C         36.51591        38.12053         0.14283
C         37.71554        40.30699         0.80320
C         36.52549        39.60706         0.10983
C         37.79090        41.77543         0.39152
C         36.45716        42.50893         0.51900
C         37.64956        44.70923         0.85700
C         36.46953        44.00978         0.24376
C         37.45059        45.84395         1.61629
C         36.12864        46.43262         1.56810
C         40.32186        24.49627         1.35129
C         39.29556        25.19255         1.60911
C         40.32176        27.22373         1.18422
C         39.11272        26.57867         1.57131
C         40.34411        28.73154         1.41894
C         39.11063        29.39747         0.74581
C         40.30585        31.58870         0.94188
C         39.11730        30.91565         0.82752
C         40.31376        33.07355         0.92899
C         39.05690        33.72253         0.44745
C         40.35839        36.00564         0.23438
C         39.09134        35.18945         0.16784
C         40.33558        37.38734         0.82943
C         39.01211        38.14169         1.07634
C         40.25550        40.38982         0.99540
C         39.06142        39.59860         0.59131
C         40.33826        41.86486         0.83945
C         39.07327        42.55804         0.49204
C         40.30825        44.79898         0.73958
C         38.99648        44.07422         0.58016
C         40.38102        46.28420         1.00491
C         39.41106        47.01808         1.63931
C         40.35841        49.04030         0.76309
C         39.47515        48.44863         1.40649
C         42.78794        24.52985         0.46661
C         41.53103        25.05740         0.91442
C         42.56326        27.20445         0.03587
C         41.47987        26.49769         0.79554
C         42.61519        28.70959         0.05174
C         41.64819        29.41484         0.96081
C         42.80841        31.60529         0.28763
C         41.62679        30.89687         0.86775
C         42.88200        33.04261         0.65601
C         41.60229        33.81946         0.75607
C         42.92061        35.99130         0.46862
C         41.64320        35.25588         0.28670
C         42.87685        37.48388         0.34906
C         41.63434        38.13689         0.89287
C         42.90441        40.37206         1.01265
C         41.61217        39.63422         1.12011
C         42.83360        41.84071         1.46397
C         41.55455        42.59108         0.98322
C         42.81235        44.82017         0.99550
C         41.56696        44.00348         0.89805
C         42.82853        46.29789         0.65354
C         41.51402        46.96061         0.30664
C         42.86430        48.99189        -0.04371
C         41.49105        48.50835         0.03014
C         43.81618        25.12071         0.09106
C         45.05329        27.26982        -0.71864
C         43.84468        26.48506        -0.44878
C         45.05038        28.77953        -1.06496
C         43.80445        29.48126        -0.49244
C         45.15844        31.66414        -0.53652
C         43.91460        30.93133        -0.14035
C         45.24741        33.14803        -0.32132
C         44.13469        33.80951         0.44405
C         45.38351        35.98239         0.62392
C         44.08499        35.29900         0.47146
C         45.43839        37.48074         0.40394
C         44.14303        38.28004         0.31278
C         45.39399        40.42308         0.82661
C         44.08333        39.70093         0.82334
C         45.38707        41.90142         0.71362
C         44.13701        42.62325         1.14111
C         45.34461        44.76502         0.30721
C         44.14111        44.10960         0.97637
C         44.99375        46.02529        -0.57057
C         44.24713        46.97602         0.37081
C         43.89497        48.32374        -0.18982
C         47.47752        27.36110        -0.94680
C         46.34801        26.82057        -0.71621
C         47.65854        28.76987        -0.92220
C         46.38642        29.52178        -0.81220
C         47.69500        31.67638        -0.86092
C         46.42068        30.89322        -0.69977
C         47.80914        33.09912        -0.43040
C         46.55319        33.94517        -0.46327
C         47.93577        35.84315         0.59831
C         46.62353        35.13818         0.47771
C         47.91225        37.32392         0.43586
C         46.77617        37.95094        -0.04300
C         47.92708        40.43482         0.80794
C         46.68775        39.91577         1.49104
C         47.87397        41.70507         0.32184
C         46.75702        42.61347         0.86186
C         47.61954        44.38486        -0.92455
C         46.64794        44.00538         0.19432
C         47.38150        45.80622        -1.23466
C         46.32690        46.42164        -1.10117
C         50.19050        28.84529        -1.03007
C         48.88766        29.40926        -1.03208
C         50.35440        31.58100        -1.00338
C         48.97360        30.89483        -1.10534
C         50.29775        32.94502        -0.26778
C         49.03938        33.73876        -0.25345
C         50.38694        35.84019         0.06766
C         49.15351        35.14140         0.10104
C         50.46292        37.29133         0.46504
C         49.17896        38.07264         0.64563
C         50.46188        40.34908         0.49048
C         49.17502        39.58729         0.76424
C         50.36346        41.75819        -0.13391
C         48.95860        42.10581        -0.66869
C         50.04753        43.94145        -1.86614
C         48.76826        43.51610        -1.28445
C         51.34489        29.32679        -1.04748
C         52.75599        31.55914        -0.67381
C         51.55877        30.68178        -0.40567
C         52.71567        32.78957        -0.59387
C         51.63194        33.69649        -0.18559
C         52.69551        36.03644        -0.38064
C         51.60088        35.15004        -0.23583
C         52.77482        37.28754        -0.36728
C         51.77461        38.10489         0.34199
C         52.70904        40.43609        -0.13110
C         51.73110        39.57921         0.27460
C         52.72998        41.64056        -0.59964
C         51.57581        42.34370        -0.83800
C         51.17165        43.50890        -1.55435
O         40.86414        39.97811         2.29212
O         44.99575        28.94776        -2.56587
O         45.43784        41.11426        -0.50791
O         41.21866        47.54584        -0.99347
O         37.22259        35.59967        -1.22354
O         38.42605        46.43378         2.40230
O         35.85673        44.57352        -0.94175
O         42.71371        26.70706        -1.32949
O         43.36845        38.04951        -0.91059
O         35.03619        30.82574        -1.28674
O         39.25977        28.99731        -0.66831
O         50.52960        41.57774         1.28294
O         47.35301        35.06713         1.72560
O         47.55153        43.51819        -2.08994
O         32.50041        35.39060        -2.22403
O         41.10193        35.73987        -0.99692
O         41.16037        37.39382         2.04906
O         51.00262        33.09910         0.99300
O         34.76246        42.36897        -1.40866
O         40.95630        33.71573         2.07301
O         36.66944        37.58093         1.50358
O         32.09883        38.79930        -2.70154
O         35.12668        37.46428        -1.94416
O         37.84931        28.42974         2.70341
O         48.22855        31.44647        -2.23946
O         45.49225        36.89118         1.74447
O         44.84490        32.62585        -1.62573
O         49.22395        38.75165         1.95151
O         44.47981        43.51358         2.25823
O         32.87044        31.98828        -1.82601
O         42.59429        29.26384        -1.30250
O         46.46176        45.03515         1.19789
O         46.63452        39.27581         2.51327
O         38.52045        42.04561        -0.81044
O         39.20671        34.22035        -0.92274
O         51.37786        37.50988         1.58658
O         42.19092        30.18958         2.06889
O         39.68362        44.62268        -0.59837
O         42.75201        45.86270         2.04231
O         43.84352        33.23891         1.75975
O         46.89388        38.96300        -0.94178
H         46.02543        39.33543        -1.20373
O         32.62691        37.66362         0.66087
H         31.75723        37.27312         0.89533
O         51.40106        30.54241         0.97013
H         52.23279        30.23007         1.38033
O         38.83177        38.12282         2.51924
H         39.65897        38.49669         2.91218
O         36.04663        42.48267         1.91192
H         36.35373        41.63639         2.33023
O         33.27428        43.89395         1.62311
H         32.40185        43.44588         1.65837
O         44.18469        27.92030        -3.14712
H         43.26139        28.17804        -2.88488
O         40.23952        28.89285         2.83385
H         40.94423        29.51974         3.12863
O         48.82154        41.19852        -1.79473
H         48.09159        41.53483        -2.36235
O         47.06541        42.78662         2.24099
H         46.68005        43.64727         2.53517
O         31.73501        41.84019         0.47755
H         31.02394        41.17489         0.37708
O         44.96390        47.09234         1.56541
H         44.42770        47.57085         2.22975
O         38.11804        29.55491        -1.39315
H         38.38690        29.40336        -2.33213
O         44.11102        45.65755        -1.61608
H         44.61773        45.40653        -2.41600
O         46.50764        34.56984        -1.77688
H         46.16557        33.89211        -2.40711
O         34.64193        39.91888        -2.56372
H         35.14591        39.14900        -2.91176
O         37.44356        40.30440         2.23211
H         37.58078        39.37085         2.55726
O         36.13240        33.98359         1.95532
H         36.15458        33.12392         2.42660
O         42.72235        41.77962         2.89491
H         43.12522        42.59903         3.26602
O         50.74640        31.88308        -2.34794
H         49.94132        31.88681        -2.91514
