         424
 CSIRO Nanostructure Databank - Neutral Graphene Oxide Data Set
C          1.23523         2.16043         0.91209
C          1.20832         3.53843         0.66782
C          2.42946         1.45151         0.88313
C          2.39417         4.25033         0.37660
C          1.20180         6.46762         0.12757
C          1.17348         7.81395         0.38905
C          2.38982         5.64628         0.00605
C          2.33986         8.66242         0.54708
C          1.12598        10.79951         0.06082
C          1.14793        12.12298        -0.24457
C          2.33008        10.01913         0.22940
C          2.39380        12.85748        -0.54654
C          1.21128        15.17453        -0.39020
C          1.27799        16.47219        -0.00786
C          2.41639        14.37758        -0.69699
C          2.54212        17.16989         0.13559
C          2.57385        18.56662         0.45234
C          3.65637         2.12612         0.63671
C          3.63705         3.53951         0.39249
C          4.88606         1.43143         0.63589
C          4.87113         4.23891         0.24994
C          3.62082         6.22295        -0.39417
C          3.57017         8.08243         1.18518
C          4.86727         5.64159        -0.01856
C          4.96317         8.67534         0.90336
C          3.61064        10.70411        -0.07339
C          3.66010        12.15624        -0.28506
C          4.89712         9.97642         0.12952
C          4.88494        12.86431        -0.14121
C          3.77300        15.09939        -0.68322
C          3.73976        16.48367        -0.06641
C          4.91601        14.26390        -0.16269
C          4.98138        17.16814         0.07022
C          3.75529        19.26619         0.46147
C          5.00413        18.59452         0.25173
C          6.11417         2.10804         0.45554
C          6.11137         3.53935         0.30587
C          7.34307         1.40896         0.41344
C          7.33631         4.24955         0.16518
C          6.08747         6.41258         0.09861
C          6.09801         7.82120         0.29428
C          7.33474         5.69037         0.10198
C          7.32937         8.53646         0.19621
C          6.16153        10.74220         0.15576
C          6.14468        12.13028         0.05339
C          7.36894         9.98429         0.19257
C          7.39568        12.83225        -0.00044
C          6.15365        14.97225         0.32138
C          6.19913        16.44696         0.02502
C          7.42617        14.25040        -0.02278
C          7.42902        17.12324        -0.03269
C          6.23327        19.26884         0.22348
C          7.44956        18.56746         0.01993
C          8.56663         2.09163         0.25527
C          8.56472         3.53022         0.15875
C          9.79888         1.39184         0.20861
C          9.80592         4.22685         0.08504
C          8.56657         6.38930         0.11397
C          8.56279         7.82386         0.10207
C          9.81049         5.65759         0.09244
C          9.79195         8.54210         0.11183
C          8.60121        10.67541         0.05950
C          8.61241        12.10039        -0.04948
C          9.83303         9.94722         0.04281
C          9.84412        12.80342        -0.23573
C          8.63306        14.94719        -0.17820
C          8.66205        16.39672        -0.17553
C          9.85504        14.21980        -0.33302
C          9.87832        17.08166        -0.34695
C          8.68800        19.23552        -0.06338
C          9.89843        18.52940        -0.26372
C         11.03072         2.06804         0.09948
C         11.03749         3.51210         0.06003
C         12.26069         1.36793         0.05102
C         12.27445         4.20983        -0.00508
C         11.04816         6.33637         0.11583
C         11.04224         7.79500         0.29201
C         12.27918         5.63971         0.02636
C         12.35278         8.54477         0.13524
C         11.07905        10.65896        -0.15092
C         11.06716        12.07475        -0.33928
C         12.30413         9.96542        -0.22955
C         12.27124        12.76569        -0.66528
C         11.08191        14.91384        -0.60008
C         11.10009        16.36902        -0.61028
C         12.25547        14.18623        -0.82311
C         12.30554        17.06853        -0.80446
C         11.12547        19.20759        -0.36603
C         12.33741        18.51646        -0.65386
C         13.49724         2.04440        -0.04496
C         13.50952         3.48907        -0.08070
C         14.72433         1.34393        -0.08537
C         14.73794         4.18158        -0.19151
C         13.53030         6.34660        -0.09366
C         13.56348         7.76452        -0.15575
C         14.74724         5.61639        -0.22845
C         14.75977         8.46134        -0.39828
C         13.50459        10.63153        -0.59921
C         13.47345        12.01885        -0.84303
C         14.76225         9.89277        -0.58767
C         14.70325        12.73104        -1.21810
C         13.45865        14.89606        -1.39385
C         13.53521        16.36926        -1.07254
C         14.75340        14.18047        -1.14702
C         14.74899        17.03187        -1.17803
C         13.52460        19.20788        -0.84629
C         14.77482        18.53765        -1.31752
C         15.96492         2.01887        -0.17848
C         15.97743         3.46215        -0.26259
C         17.19035         1.31743        -0.17192
C         17.20377         4.14937        -0.38751
C         15.97912         6.31500        -0.36761
C         15.98862         7.73492        -0.45607
C         17.21912         5.59736        -0.44796
C         17.22299         8.43735        -0.52410
C         15.97954        10.56001        -0.70338
C         16.01621        11.97154        -1.11051
C         17.23114         9.86570        -0.56604
C         17.24116        12.76337        -0.89268
C         16.02111        14.85457        -1.62233
C         16.02369        16.33494        -1.25402
C         17.25671        14.09866        -1.14367
C         17.19400        17.01660        -0.97835
C         15.99490        19.15238        -0.70159
C         17.18155        18.43624        -0.61658
C         18.43141         1.99382        -0.23825
C         18.44201         3.42931        -0.37493
C         19.66450         1.29906        -0.19441
C         19.67871         4.11516        -0.44915
C         18.42808         6.29865        -0.54799
C         18.45102         7.72323        -0.53152
C         19.70447         5.56552        -0.85539
C         19.68498         8.44285        -0.48004
C         18.44794        10.56977        -0.49590
C         18.41069        12.05759        -0.23848
C         19.67757         9.86235        -0.41540
C         19.73172        12.74634        -0.46424
C         18.53883        14.83172        -1.08784
C         18.51335        16.34058        -1.02755
C         19.76070        14.12587        -0.65710
C         19.73494        17.00673        -0.52651
C         18.39104        19.08144        -0.24210
C         19.65134        18.42922        -0.17679
C         20.89411         1.98556        -0.20629
C         20.89458         3.42374        -0.31308
C         22.13770         1.29688        -0.14886
C         22.13987         4.14471        -0.22832
C         20.93974         6.30624        -0.41500
C         20.92535         7.71186        -0.35882
C         22.14306         5.58340        -0.21420
C         22.14484         8.43265        -0.15967
C         20.92389        10.58372        -0.27422
C         20.94144        12.01594        -0.30256
C         22.13963         9.86649        -0.16004
C         22.17828        12.73387        -0.22116
C         20.98402        14.86263        -0.53765
C         20.92653        16.31422        -0.45395
C         22.17597        14.15683        -0.30036
C         22.20541        17.11847        -0.31952
C         20.78225        19.09874         0.27693
C         22.01966        18.31950         0.62128
C         23.35960         1.98313        -0.08183
C         23.34975         3.43837        -0.05089
C         24.59872         1.28427        -0.07676
C         24.55946         4.15079         0.17187
C         23.36328         6.29117         0.00218
C         23.36165         7.72012         0.00877
C         24.58203         5.55867         0.18080
C         24.59194         8.44784         0.14553
C         23.38091        10.57829        -0.05284
C         23.39911        12.00303        -0.03315
C         24.59639         9.84611         0.07007
C         24.61550        12.70191         0.30900
C         23.50943        14.87174        -0.25013
C         23.41921        16.33270         0.10912
C         24.46270        14.15287         0.70410
C         24.52421        16.99700         0.55912
C         23.28830        19.12729         0.67736
C         24.50495        18.46421         0.69551
C         25.83066         1.94293         0.10927
C         25.78812         3.38278         0.45837
C         27.06956         1.29510         0.02201
C         27.09152         4.12992         0.58992
C         25.83127         6.28306         0.30002
C         25.83220         7.70054         0.28124
C         27.07016         5.59971         0.42475
C         27.05827         8.39651         0.35786
C         25.90701        10.59784        -0.03946
C         25.81914        12.03505         0.43675
C         27.00560         9.85978         0.70911
C         27.02926        12.68663         0.88494
C         25.77109        14.89575         0.83421
C         25.77476        16.27653         0.83390
C         26.96697        14.13215         1.22803
C         27.00072        17.03015         0.99154
C         25.74379        19.15004         0.80293
C         26.97923        18.46171         0.88761
C         28.32392         1.98613         0.10705
C         28.35238         3.40466         0.32733
C         29.54939         1.31005        -0.05360
C         29.55887         4.10808         0.30530
C         28.28360         6.30077         0.37965
C         28.27587         7.71001         0.32056
C         29.58720         5.58308         0.65375
C         29.53020         8.48845         0.00403
C         28.32133        10.58979         0.63073
C         28.24398        12.00365         0.91192
C         29.51729         9.90987         0.50111
C         29.52206        12.69423         1.20221
C         28.24733        14.91647         1.46793
C         28.24450        16.36725         1.16923
C         29.55256        14.17411         1.44868
C         29.45025        17.07775         1.06693
C         28.20932        19.17096         0.88783
C         29.43553        18.49647         0.91196
C         30.78826         2.00227        -0.02465
C         30.78539         3.42882         0.11797
C         32.02992         1.32203        -0.11478
C         32.04036         4.15252         0.19914
C         30.77695         6.27526        -0.04375
C         30.81621         7.74772         0.26641
C         32.04333         5.54106         0.29258
C         31.99600         8.43540         0.42952
C         30.79491        10.57942         0.61205
C         30.77285        12.08688         0.58656
C         31.98267         9.88935         0.57012
C         32.05279        12.73808         1.14628
C         30.80177        14.90139         1.08591
C         30.81172        16.41842         1.17086
C         31.95453        14.22077         0.83892
C         31.73707        17.08510         0.12665
C         30.69801        19.21127         0.81060
C         31.85845        18.55300         0.48300
C         33.26884         2.00954        -0.04121
C         33.27990         3.42901         0.15115
C         34.50233         1.32461        -0.18960
C         34.51965         4.14998         0.13813
C         33.28424         6.26654         0.72293
C         33.27985         7.74198         0.41354
C         34.53736         5.56195         0.27419
C         34.46215         8.42498         0.21464
C         33.32261        10.56483         0.80295
C         33.28691        12.06224         0.60931
C         34.39720         9.91451        -0.07060
C         34.46180        12.76575         0.39226
C         33.14778        14.88739         0.27092
C         33.08437        16.36214        -0.03108
C         34.45276        14.21117         0.33138
C         34.36100        17.10233         0.01132
C         33.12434        19.20678         0.35220
C         34.30889        18.53348         0.11810
C         35.73362         2.01841        -0.21282
C         35.74271         3.45036        -0.06704
C         36.96386         1.34238        -0.40110
C         36.97076         4.17060        -0.08569
C         35.74871         6.28243         0.18237
C         35.73275         7.74178         0.16088
C         36.96776         5.58000         0.05466
C         36.92228         8.46926        -0.01525
C         35.72424        10.62794         0.08222
C         35.71532        12.06501         0.18011
C         36.90572         9.91559         0.00206
C         36.91065        12.80897         0.06224
C         35.61751        14.94533         0.09791
C         35.58082        16.39589         0.00373
C         36.88040        14.24618         0.02377
C         36.83325        17.11643        -0.01429
C         35.56653        19.34723        -0.06615
C         36.84454        18.54586        -0.00306
C         38.18259         2.04715        -0.47371
C         38.20179         3.46175        -0.30723
C         39.41546         1.36219        -0.75206
C         39.42820         4.18543        -0.45826
C         38.26424         6.31961         0.26097
C         38.19724         7.78087        -0.12832
C         39.46123         5.60014        -0.31295
C         39.36168         8.46177        -0.41149
C         38.23338        10.62704         0.14417
C         38.16779        12.12435        -0.09681
C         39.30782         9.94832        -0.71453
C         39.33632        12.83753        -0.29274
C         38.08406        14.97190        -0.07656
C         38.06670        16.41179        -0.04005
C         39.33492        14.27888        -0.20767
C         39.30235        17.12526        -0.04687
C         38.04245        19.23456         0.02239
C         39.29184        18.55160         0.00554
C         40.58459         2.05409        -0.92006
C         40.62011         3.48162        -0.80047
C         41.81245         4.21385        -1.01654
C         40.64877         6.30710        -0.54760
C         40.64062         7.77285        -0.47322
C         41.82167         5.59219        -0.91449
C         41.80232         8.51283        -0.46911
C         40.63544        10.66340        -0.55850
C         40.60551        12.16273        -0.78873
C         41.78889         9.94885        -0.46367
C         41.83364        12.90378        -0.33861
C         40.55376        14.98761        -0.16998
C         40.55301        16.42808        -0.08941
C         41.79224        14.23459        -0.11695
C         41.74577        17.18070        -0.08047
C         40.51449        19.26459         0.02251
C         41.72163        18.57809        -0.02107
O         32.96899        15.39245        -1.12989
O         15.40587        12.17562        -2.43932
O          3.45994         7.30836         2.13033
O          2.29712        13.53618        -1.88955
O         11.80341         8.25196         1.47105
O          4.31531         9.90794        -1.20091
O         18.75922        15.63972        -2.30084
O         27.41355        14.50799         2.59294
O         26.36909         3.66924         1.78885
O         29.66169        13.21461         2.56784
O         38.88611        10.10390        -2.10912
H         39.46063         9.52601        -2.65498
O         15.99723        14.79379        -3.09465
H         15.96574        13.82831        -3.31378
O         31.36845        16.72316         2.48086
H         30.74912        16.38520         3.16163
O         13.25928        14.84287        -2.85891
H         14.13341        15.07235        -3.26666
O         31.05496        17.03879        -1.14336
H         31.44173        16.28555        -1.65053
O         22.50232        17.60020        -1.66468
H         21.70978        18.07968        -1.98921
O         18.14817        12.19286         1.20965
H         18.88997        11.76013         1.68410
O         35.60981        20.43939         0.86412
H         35.67023        20.06812         1.76797
O         33.29896         6.17494         2.20278
H         34.08555         6.67193         2.51515
O         24.08626        14.80575        -1.58611
H         23.64766        15.49837        -2.12764
O         30.58684         6.12713        -1.48216
H         30.06851         6.91317        -1.79361
O          5.44132         9.02801         2.22872
H          5.18503         8.28625         2.82358
O         29.48157         8.61506        -1.48403
H         30.11158         9.32450        -1.73721
O         30.70364        12.45647        -0.82219
H         31.53447        12.16102        -1.25398
O         32.15456        12.55613         2.58683
H         31.29462        12.85532         2.98504
O          6.06638        14.90432         1.80594
H          6.90267        15.27363         2.16252
O          4.12866        15.34514        -2.08772
H          3.73034        14.60092        -2.60027
O         23.83408        14.17855         2.01583
H         24.48995        13.86047         2.67170
O         33.96150        10.09644        -1.44978
H         34.66785         9.75260        -2.03611
O         38.66408        10.45278         1.52655
H         37.95230        10.79316         2.10828
O         26.27492        10.62393        -1.44453
H         25.58585        11.12386        -1.93026
O         21.79694        17.75076         1.95727
H         21.73084        18.49486         2.59131
O         29.81908         5.68778         2.08258
H         29.12536         5.17020         2.54320
O         26.61096         9.90140         2.11432
H         27.30185         9.44815         2.64133
O         14.86801        18.79746        -2.78151
H         15.59777        18.23695        -3.12429
O         40.54603        12.31687        -2.25197
H         39.76713        11.78517        -2.54717
O         19.78775         5.54368        -2.33702
H         18.99763         5.06201        -2.66320
O         33.69395        10.32247         2.18683
H         33.16837        10.96000         2.73097
O         38.46360         6.31941         1.72542
H         39.26171         6.86047         1.90785
O          3.59567         7.31250        -1.20073
H          4.49843         7.62242        -1.42509
H          0.29331         1.63339         1.12035
H          0.24161         4.05942         0.68067
H          2.43829         0.36832         1.07074
H          0.22727         5.95706         0.07087
H          0.18694         8.30409         0.37715
H          0.15617        10.31540         0.24420
H          0.19490        12.65958        -0.35313
H          0.23076        14.69441        -0.51818
H          0.35198        17.03257         0.18896
H          1.62099        19.08919         0.62237
H          4.88988         0.34207         0.78999
H          3.75633        20.35242         0.63322
H          7.34329         0.31301         0.50772
H          6.25864        20.36164         0.34968
H          9.79100         0.29323         0.26719
H          8.71522        20.33322         0.00862
H         12.25203         0.26831         0.08849
H         11.14548        20.30433        -0.27839
H         14.71582         0.24491        -0.03219
H         13.53254        20.30486        -0.75247
H         17.18072         0.22018        -0.09073
H         15.98789        20.22651        -0.46312
H         19.65984         0.20109        -0.12431
H         18.34531        20.14803         0.02560
H         22.13696         0.19661        -0.13728
H         20.69666        20.14832         0.60069
H         24.59125         0.19436        -0.22964
H         23.24725        20.22098         0.79811
H         27.08796         0.21466        -0.18717
H         25.74590        20.25057         0.80881
H         29.54951         0.21824        -0.18811
H         28.19342        20.26764         0.80169
H         32.03345         0.22960        -0.24712
H         30.70357        20.29943         0.97749
H         34.49779         0.23276        -0.32409
H         33.16492        20.29988         0.47873
H         36.96432         0.24924        -0.52528
H         35.51360        19.81913        -1.08871
H         39.39774         0.26748        -0.85631
H         38.03079        20.33399         0.04956
H         41.51673         1.52107        -1.15830
H         42.73292         3.67574        -1.28552
H         42.75309         6.13781        -1.11842
H         42.78049         8.01367        -0.46406
H         42.76288        10.45585        -0.41364
H         42.79702        12.37844        -0.28015
H         42.72143        14.75985         0.14571
H         42.71933        16.67545        -0.12950
H         40.49846        20.36289         0.06478
H         42.66927        19.13464        -0.01504
