         349
 CSIRO Nanostructure Databank - Neutral Graphene Oxide Data Set
C          1.16874         3.48058        -0.07562
C         -0.03154         4.16617        -0.18271
C          1.16144         6.24468        -0.64417
C         -0.03751         5.54217        -0.44366
C          1.16542         7.70982        -0.76588
C         -0.01377         8.44134        -0.93294
C          1.18397        10.56689        -0.85766
C          0.00296         9.84382        -1.00063
C          1.23629        12.03566        -1.10381
C          0.01579        12.85791        -1.21838
C          1.27265        14.98293        -0.99823
C          0.05376        14.21162        -1.19257
C          1.25973        16.38712        -1.03255
C          0.09690        17.22105        -1.24920
C          1.36499        19.35149        -0.98380
C          0.13871        18.58592        -1.28996
C          1.39156        20.87891        -0.68772
C          0.17456        21.71330        -0.78570
C          1.07579        23.45814         0.75820
C          0.05095        22.90209        -0.16866
C          1.07893        24.94747         1.04100
C         -0.06988        25.77057         0.63280
C          1.24561        27.83554         0.75466
C         -0.00167        27.12628         0.58972
C          1.28498        29.27304         0.54730
C          3.60559         3.37232        -0.02933
C          2.40878         4.12243        -0.32837
C          3.61914         6.29120        -0.75573
C          2.39449         5.52709        -0.65935
C          3.62648         7.72686        -0.52737
C          2.39317         8.43466        -0.63206
C          3.64408        10.55021        -0.38030
C          2.40973         9.86217        -0.63366
C          3.58974        12.02279        -0.01227
C          2.50252        12.76785        -0.76750
C          3.68373        14.88353        -0.36573
C          2.48696        14.25344        -0.68049
C          3.77640        16.34157        -0.49396
C          2.53803        17.10768        -0.89316
C          3.57687        19.10580         0.12968
C          2.51128        18.53663        -0.53893
C          3.31443        20.39857         0.72527
C          2.42876        21.33578         0.27894
C          3.62748        23.42783         1.50751
C          2.33121        22.66544         0.98837
C          3.69468        24.90682         1.06586
C          2.43197        25.68206         1.21868
C          3.69706        27.85966         0.95553
C          2.41880        27.13824         0.98685
C          3.72773        29.29661         0.58838
C          2.45587        29.96706         0.47111
C          6.12977         3.37264        -0.03653
C          4.85219         3.66504        -0.58498
C          6.11331         6.21211        -0.68573
C          4.81518         5.70112        -1.12658
C          6.09270         7.63908        -0.19238
C          4.83801         8.41797        -0.33987
C          6.04809        10.56614         0.33227
C          4.83255         9.83857        -0.20955
C          6.12923        12.03572         0.03814
C          4.90974        12.76026        -0.09063
C          6.15501        14.88960         0.04779
C          4.91281        14.15326        -0.11345
C          6.13225        16.27666         0.20472
C          4.91944        17.05433         0.11320
C          6.14730        19.22981         0.41020
C          4.84638        18.41573         0.37639
C          6.21932        20.59356         1.07475
C          5.14009        21.29991         1.52267
C          6.20037        23.45790         0.89428
C          4.93789        22.72533         1.17491
C          6.18450        24.92185         0.77353
C          4.88005        25.56137         0.77119
C          6.05368        27.75633         0.00477
C          4.94435        27.05142         0.76967
C          6.19812        29.19886         0.51015
C          4.94133        29.93314         0.48769
C          8.54314         3.49902         0.12403
C          7.34122         4.05829        -0.29553
C          8.71087         6.21599        -1.04238
C          7.34512         5.39330        -1.13453
C          8.63038         7.67266        -0.57716
C          7.40162         8.35021        -0.09443
C          8.58501        10.61078        -0.19094
C          7.38221         9.83103         0.17256
C          8.60135        11.99166        -0.07046
C          7.37250        12.71862         0.12219
C          8.63734        14.80821         0.36263
C          7.41262        14.15801         0.16819
C          8.69665        16.26367         0.25762
C          7.39902        17.01815         0.22252
C          8.67787        19.12970         0.96003
C          7.37874        18.41398         0.75269
C          8.66961        20.61507         0.95671
C          7.48800        21.29944         0.97015
C          8.73432        23.53481         0.96036
C          7.47929        22.76828         1.31554
C          8.67748        24.91381         0.80727
C          7.39280        25.58962         0.59430
C          8.89027        27.95844         1.37407
C          7.30972        26.88318        -0.14930
C          8.69795        29.25465         0.78491
C          7.36601        29.86092         0.76911
C         10.97452         3.56333         0.59501
C          9.80286         4.19301         0.12670
C         11.06126         6.26841        -0.23636
C          9.85382         5.54306        -0.31622
C         11.07985         7.70868        -0.56260
C          9.79635         8.39490        -0.61396
C         11.04776        10.63799        -0.82271
C          9.71082         9.89390        -0.88627
C         11.04256        12.04808        -0.37580
C          9.88060        12.70561        -0.08199
C         11.23576        14.86609         0.59041
C          9.88946        14.02137         0.69955
C         11.14201        16.33139         0.20695
C          9.95002        17.02203         0.49020
C         11.16715        19.12429         0.58229
C          9.94984        18.42053         0.66395
C         11.24414        20.56103         0.93032
C          9.94680        21.33744         1.13939
C         11.21503        23.44918         0.90726
C          9.98257        22.80643         1.01464
C         11.23101        24.92762         1.05351
C          9.91660        25.66749         1.32434
C         11.10558        27.78622         0.40616
C          9.98777        27.15260         1.00667
C         11.03532        29.18174         0.06101
C          9.78532        29.86311         0.17681
C         13.41472         3.63935         1.09475
C         12.20766         4.26167         0.65990
C         13.44451         6.42414         0.41893
C         12.21562         5.63212         0.25391
C         13.54444         7.68590        -0.36616
C         12.26721         8.40395        -0.57606
C         13.61700        10.57562        -0.46144
C         12.33691         9.86877        -0.75442
C         13.61300        11.97877        -0.38057
C         12.35175        12.65375         0.10706
C         13.49165        14.88021        -0.70379
C         12.30114        14.13965        -0.20134
C         13.49652        16.41208        -0.76064
C         12.31781        17.05218        -0.05647
C         13.58901        19.18017         0.04996
C         12.34321        18.45351         0.16146
C         13.61548        20.58735         0.17138
C         12.44262        21.32417         0.54685
C         13.64597        23.45468         0.24705
C         12.43692        22.73267         0.60855
C         13.63949        24.89624         0.15563
C         12.44474        25.66238         0.58579
C         13.46289        27.75776        -0.26318
C         12.34372        27.08935         0.19827
C         13.42082        29.17333        -0.52470
C         12.18483        29.84634        -0.41097
C         15.82742         3.71478         1.61402
C         14.65289         4.33057         1.22746
C         15.99504         6.46808         0.78257
C         14.67969         5.79264         0.96627
C         16.04124         7.79634         0.24535
C         14.84837         8.40877        -0.37917
C         16.06275        10.58617        -0.48187
C         14.84553         9.88680        -0.49855
C         16.06523        12.00220        -0.54637
C         14.82128        12.68911        -0.51571
C         16.09482        14.88736        -0.93248
C         14.79140        14.13499        -0.85239
C         16.08053        16.42726        -0.93074
C         14.80420        17.07129        -0.41259
C         16.06481        19.18398        -0.26360
C         14.81334        18.43958        -0.17958
C         16.02199        20.60556        -0.33965
C         14.83658        21.30932        -0.10091
C         16.03931        23.46863        -0.39319
C         14.81532        22.75364        -0.10532
C         16.03133        24.91466        -0.38493
C         14.77860        25.59636        -0.18599
C         15.94671        27.85495        -0.01022
C         14.75866        27.04975        -0.58778
C         15.90880        29.25521        -0.62731
C         14.63040        29.85427        -0.81636
C         18.31959         3.67126         1.46077
C         17.10284         4.47493         1.86661
C         18.44288         6.59261         1.31564
C         17.13405         5.85305         1.25144
C         18.46733         7.83238         0.46296
C         17.28810         8.44865         0.07222
C         18.56911        10.59000        -0.22523
C         17.34468         9.79991        -0.63998
C         18.53453        12.01662        -0.20529
C         17.31862        12.73941        -0.48145
C         18.55123        14.86081        -0.34871
C         17.34609        14.15216        -0.57141
C         18.60257        16.35402        -0.63224
C         17.28124        17.00286        -0.17772
C         18.53735        19.21434        -0.30192
C         17.29481        18.50973        -0.31650
C         18.54281        20.62890        -0.44658
C         17.25419        21.30881        -0.83225
C         18.48216        23.48623        -0.69527
C         17.25011        22.78599        -0.56116
C         18.43097        24.94105        -0.92978
C         17.18263        25.65472        -0.63024
C         18.35870        27.87473        -0.99986
C         17.31066        27.10026        -0.16038
C         18.40344        29.35790        -0.57352
C         17.06140        29.95776        -0.88973
C         19.47479         4.28779         1.06341
C         20.86101         6.31533         0.69487
C         19.60549         5.70336         0.97890
C         20.97684         7.63766         0.36746
C         19.75871         8.38707        -0.09312
C         20.90893        10.62469         0.42497
C         19.75047         9.90080         0.07067
C         20.89603        12.00750         0.43939
C         19.72754        12.73602         0.10785
C         20.87574        14.94239         0.41667
C         19.72453        14.18154         0.05257
C         20.88596        16.33285         0.41785
C         19.78180        17.08027        -0.01663
C         20.95640        19.28593         0.05333
C         19.77048        18.50922        -0.07296
C         20.94565        20.65561        -0.11263
C         19.74106        21.36536        -0.39188
C         20.92010        23.59606        -0.49962
C         19.72056        22.81630        -0.59606
C         20.94010        24.96218        -0.59748
C         19.76062        25.72544        -0.98100
C         20.83815        27.97093        -1.11158
C         19.72876        27.21470        -0.91358
C         20.74304        29.40225        -1.35818
C         19.57978        30.06480        -1.20391
O          4.78397         4.45411        -1.75509
O         13.80199         6.58535         1.84647
O          8.13261        16.81170        -1.02542
O          7.15520         4.98676        -2.43266
O          8.07164        27.10750        -1.08736
O          3.55616        16.78064        -1.89673
O          2.26734        12.32624        -2.13689
O          5.80291        10.95047         1.69400
O          7.89777        18.54812         2.09620
O          1.80876        20.36206        -1.98134
O         10.73574        20.85451         2.28111
O          3.99781        20.61845         1.92960
O         12.22628        12.38604         1.48868
O          7.63705         8.88486         1.26365
O         15.45638        14.37537        -2.14622
O         12.42264        14.39973        -1.62278
O          6.02231         6.51909         0.75286
O          4.62962        27.58105         2.08359
O         11.80878        10.37956        -2.05232
O          1.26094        22.66746         1.98678
O          5.42611        22.88158        -0.21556
O         12.21917        25.41311         2.04127
O         19.08314        25.29191        -2.21891
O         14.39960         7.63037        -1.57191
O          1.60307        25.26329         2.36019
O         17.95569        27.84931        -2.38076
H         18.15891        26.94861        -2.73079
O         19.75592         8.12280        -1.53520
H         18.98263         8.60689        -1.93115
O         17.90429        26.93179         1.16012
H         17.16151        26.90167         1.80832
O          9.80757        13.56542         2.07617
H         10.56292        12.91175         2.15715
O          7.98518        27.52971         2.27495
H          8.33507        26.70738         2.71196
O         17.48070         9.52831        -2.07705
H         16.66117         9.07510        -2.37384
O          3.56294        23.44497         2.93633
H          2.65416        23.74587         3.18190
O          9.71595        25.57813         2.78139
H         10.61193        25.66876         3.18538
O          3.24684        12.05454         1.40520
H          4.03017        11.64029         1.86339
O          5.56562        27.87694        -1.36172
H          6.36128        27.95202        -1.93765
O         16.16308        16.86250        -2.31070
H         15.31585        16.59081        -2.74233
O          6.34050        19.56444        -1.00265
H          5.54554        20.03882        -1.32774
O         11.79759        15.00202         1.91877
H         11.11710        14.67045         2.55686
O          9.28964         9.97277        -2.28839
H         10.11368         9.89748        -2.82792
O         17.24337         4.63927         3.32050
H         17.86606         5.39897         3.45424
O         17.18119        21.20878        -2.30900
H         17.98992        21.63069        -2.67118
O         17.07387        16.67891         1.21993
H         17.77206        17.12068         1.74701
O         14.92847        27.07851        -2.02947
H         14.17728        26.60400        -2.44147
O         15.70686        28.00501         1.40912
H         14.87391        28.51017         1.52622
O          7.44301        22.83218         2.77788
H          8.23098        22.36204         3.12674
O          9.20053         6.31854        -2.40418
H          8.57972         5.73456        -2.93452
O         18.78301        16.52308        -2.06103
H         17.89379        16.51506        -2.49666
O         18.60306        29.49080         0.86203
H         18.40535        28.61898         1.28675
O         13.33155        16.74127        -2.18701
H         12.70560        16.06721        -2.54767
O         18.62437         7.01010         2.75427
H         17.94637         7.69486         2.94415
H          1.16837         2.41297         0.18701
H         -0.98151         3.64005        -0.01608
H         -0.99921         6.07247        -0.44814
H         -0.97748         7.92861        -1.05371
H         -0.94551        10.36713        -1.18491
H         -0.95665        12.35522        -1.32388
H         -0.89101        14.76181        -1.30770
H         -0.86888        16.73286        -1.44543
H         -0.77633        19.14285        -1.53834
H         -0.61648        21.37352        -1.47012
H         -0.86278        23.48863        -0.34155
H         -1.01498        25.27365         0.37429
H         -0.89610        27.70859         0.32472
H          0.32624        29.79761         0.42518
H          3.52618         2.57314         0.72486
H          2.44669        31.05196         0.29116
H          6.14296         2.64284         0.79201
H          4.97626        31.02957         0.39022
H          8.55153         2.43959         0.42904
H          7.31075        30.95209         0.92242
H         10.92673         2.51748         0.93222
H          9.68534        30.87256        -0.24727
H         13.38738         2.56874         1.34911
H         12.13177        30.92193        -0.63531
H         15.82843         2.63508         1.83099
H         14.58549        30.91349        -1.11298
H         18.30877         2.58658         1.64285
H         16.99305        30.98014        -1.29559
H         20.36440         3.67782         0.83948
H         21.76440         5.68794         0.75979
H         21.96895         8.05303         0.13952
H         21.83607        10.09092         0.67424
H         21.82391        12.53557         0.69477
H         21.78130        14.42502         0.75954
H         21.78395        16.84782         0.78902
H         21.91645        18.78276         0.23281
H         21.89862        21.19633        -0.04217
H         21.85981        23.08900        -0.24167
H         21.85226        25.50897        -0.31787
H         21.83176        27.50102        -1.16762
H         21.64320        29.92021        -1.71966
H         19.51330        31.14593        -1.39736
