         621
 CSIRO Nanostructure Databank - Neutral Graphene Oxide Data Set
C          6.07214        32.10092        -0.38337
C          6.14674        33.43974        -0.23464
C          8.37141        27.64164        -0.11617
C          8.40228        29.06241        -0.27276
C          7.24009        29.84216        -0.35787
C          8.56962        31.99299        -0.69886
C          7.23112        31.26798        -0.87419
C          8.62236        33.42176        -0.31210
C          7.40396        34.17887        -0.27477
C          8.65691        36.29332        -0.03745
C          7.43230        35.56768        -0.16403
C          8.68572        37.66535         0.14966
C         10.77688        23.24025         0.00472
C         10.73931        24.66536        -0.04476
C          9.54364        25.43107        -0.04876
C         10.82281        27.53562        -0.16515
C          9.55342        26.85701        -0.09508
C         10.86034        28.96638        -0.24565
C          9.69831        29.70654        -0.33865
C         11.02049        31.85276         0.05502
C          9.81138        31.18003        -0.49307
C         11.02692        33.27584         0.25353
C          9.84668        34.03213         0.01022
C         11.13973        36.19798         0.56277
C          9.91480        35.51639         0.03206
C         11.07762        37.63756         0.93152
C          9.85284        38.38512         0.61166
C         10.82855        40.48702         1.63764
C          9.78756        39.73624         0.84438
C         10.99920        41.92261         1.17935
C         13.21395        18.89515         0.13665
C         13.21333        20.32823         0.14467
C         12.00392        21.06565         0.04631
C         13.25307        23.16782         0.02575
C         11.99276        22.48406         0.01346
C         13.25178        24.63106         0.08224
C         11.98776        25.37395        -0.10601
C         13.29163        27.46258        -0.49677
C         12.01546        26.76386        -0.18734
C         13.34101        28.86831        -0.00039
C         12.16560        29.72518        -0.37522
C         13.35953        31.71583         0.82930
C         12.14102        31.08600         0.29022
C         13.39557        33.18331         0.91466
C         12.24511        33.91943         0.68918
C         13.44178        36.00743         1.61835
C         12.09141        35.28467         1.34694
C         13.43516        37.50029         1.75361
C         12.17101        38.25663         1.46678
C         13.45832        40.46114         1.70570
C         12.14904        39.71764         1.75399
C         13.46458        41.95690         1.50354
C         12.16961        42.64185         1.23245
C         13.38297        44.77527         0.71102
C         12.20313        44.04718         0.93056
C         13.36753        46.18055         0.48587
C         15.70895        14.48421        -0.02776
C         15.61610        15.92849        -0.22696
C         14.39027        16.71129         0.00949
C         15.67947        18.80087         0.38769
C         14.39251        18.10612         0.12628
C         15.70353        20.33639         0.44111
C         14.45038        21.05344         0.18074
C         15.76874        23.15968        -0.01163
C         14.48006        22.46207         0.05858
C         15.81790        24.54479        -0.19947
C         14.58206        25.33175        -0.09719
C         15.89911        27.51342        -0.64901
C         14.57954        26.73768        -0.59920
C         15.90292        28.83771         0.09504
C         14.63011        29.48047         0.44672
C         15.96095        31.64166         0.74541
C         14.66639        30.93097         0.84385
C         15.98631        33.08492         1.08941
C         14.67733        33.84412         1.26955
C         15.86959        36.03921         0.93095
C         14.69267        35.32632         1.23135
C         15.89501        37.44909         0.99884
C         14.75050        38.20375         1.55624
C         15.86063        40.35884         0.71465
C         14.76074        39.70828         1.49879
C         15.85644        41.85563         0.52532
C         14.71200        42.65483         1.06065
C         15.84602        44.73837         0.44126
C         14.66004        44.08026         0.65372
C         15.85027        46.20959         0.33280
C         14.54781        46.91917         0.27915
C         15.70148        49.04339        -0.34314
C         14.55179        48.31333         0.10176
C         15.68857        50.40620        -0.51865
C         18.14512        10.15252         0.13630
C         18.18555        11.66473         0.03121
C         16.98890        12.36220        -0.01072
C         18.18738        14.51931        -0.01030
C         16.92450        13.79929        -0.06947
C         18.18347        15.90252         0.10355
C         16.98465        16.69532        -0.15875
C         18.14334        18.84825         0.31737
C         16.96473        18.13182         0.18115
C         18.19705        20.28377         0.31987
C         16.99443        21.02260         0.25006
C         18.25886        23.11883        -0.00509
C         17.00219        22.42516         0.05768
C         18.28347        24.53887        -0.13614
C         17.05923        25.27128        -0.24646
C         18.31394        27.39943        -0.18799
C         17.09192        26.68076        -0.27446
C         18.33633        28.82807        -0.05644
C         17.09371        29.53297         0.18831
C         18.46047        31.65734         0.73120
C         17.12474        30.95997         0.50348
C         18.39992        33.15690         0.46937
C         17.21292        33.82627         0.68998
C         18.41298        36.01664         0.35002
C         17.09522        35.28556         0.49321
C         18.44974        37.46412         0.73397
C         17.17195        38.20720         0.92853
C         18.24439        40.34147         0.09606
C         17.15329        39.66404         0.60624
C         18.25709        41.78549        -0.09049
C         17.12607        42.53249         0.24282
C         18.33555        44.73133        -0.24381
C         17.13394        44.00639         0.36030
C         18.24922        46.14052        -0.66366
C         17.07749        46.91059        -0.23537
C         18.12710        48.98333        -1.31150
C         16.89023        48.27294        -0.80685
C         18.14066        50.45996        -1.21706
C         16.78421        51.15585        -1.23892
C         18.02361        53.25295        -0.57622
C         16.84145        52.56099        -0.71622
C         18.05707        54.59045        -0.09231
C         20.73589         5.95286        -0.51008
C         20.72075         7.36137        -0.45469
C         19.49136         8.08711        -0.29941
C         20.68746        10.20513        -0.16054
C         19.46293         9.45688        -0.14077
C         20.68725        11.62278        -0.01649
C         19.43998        12.35482         0.06051
C         20.66359        14.48161         0.19677
C         19.44040        13.78192         0.09263
C         20.70624        15.89459         0.28410
C         19.42557        16.61668         0.43677
C         20.66985        18.82605         0.08764
C         19.41735        18.10914         0.44879
C         20.69072        20.27339         0.18067
C         19.47594        20.96787         0.24096
C         20.72671        23.09674         0.02740
C         19.47916        22.39947         0.09715
C         20.72846        24.49499        -0.10748
C         19.52287        25.23591        -0.18077
C         20.73897        27.39886        -0.39989
C         19.53471        26.67209        -0.24335
C         20.75148        28.80068        -0.38199
C         19.56198        29.53871        -0.10790
C         20.82943        31.67339        -0.15684
C         19.63196        30.96622         0.06226
C         20.89249        33.11131        -0.00534
C         19.66113        33.86566         0.25655
C         20.94644        36.00800         0.32088
C         19.67416        35.25485         0.33868
C         20.94454        37.50682         0.11203
C         19.67003        38.24461         0.33362
C         20.67384        40.27786        -0.85665
C         19.46385        39.58439        -0.30197
C         20.63729        41.76242        -0.93901
C         19.46627        42.44021        -0.58433
C         20.64357        44.64500        -1.29051
C         19.37490        43.88113        -0.88035
C         20.65143        46.12261        -1.21194
C         19.40871        46.82734        -1.11516
C         20.62479        48.95925        -1.40656
C         19.41652        48.25570        -1.28017
C         20.62253        50.46113        -1.68274
C         19.31803        51.13904        -1.21708
C         20.57710        53.32346        -0.65131
C         19.29716        52.61298        -1.00540
C         20.52876        54.60594         0.08437
C         19.25686        55.28051         0.21245
C         20.41408        57.21383         1.21042
C         19.22725        56.56940         0.78390
C         20.39431        58.52307         1.74316
C         23.18634         3.20199         0.09035
C         22.07991         3.83275        -0.46664
C         23.12951         6.04085        -0.81341
C         21.95911         5.25801        -0.64011
C         23.20643         7.41969        -0.56329
C         21.95231         8.09766        -0.44758
C         23.15764        10.22210        -0.41038
C         21.92456         9.51166        -0.31431
C         23.14015        11.63489        -0.27938
C         21.93282        12.30832        -0.04182
C         23.15525        14.53611        -0.00317
C         21.95456        13.73918         0.41508
C         23.17641        15.91321         0.31072
C         21.90921        16.59823         0.40123
C         23.20064        18.78348         0.48160
C         21.97636        18.05093         0.17978
C         23.23377        20.19341         0.42403
C         22.01602        20.93036        -0.15497
C         23.17162        23.09118         0.36849
C         21.98472        22.40281         0.13879
C         23.25083        24.50587         0.19554
C         22.01907        25.17182        -0.28116
C         23.24005        27.39716        -0.21440
C         21.99936        26.64284        -0.52789
C         23.28799        28.76614        -0.77123
C         21.97504        29.53339        -0.75423
C         23.25313        31.65317        -0.73975
C         22.03364        30.99405        -0.56899
C         23.33195        33.07849        -0.60409
C         22.10867        33.76613        -0.24596
C         23.28527        35.93078        -0.74974
C         22.17794        35.22619        -0.03928
C         23.23137        37.39337        -1.02162
C         22.03880        38.19525        -0.63191
C         23.16473        40.25916        -1.41634
C         21.97111        39.53268        -0.90228
C         23.12623        41.75969        -1.52258
C         21.85140        42.48496        -1.23702
C         23.14489        44.59650        -1.08199
C         21.87632        43.86834        -1.25018
C         23.13105        46.09033        -1.14196
C         21.85277        46.83533        -1.30348
C         23.13905        48.99198        -1.39815
C         21.85000        48.24903        -1.38292
C         23.12010        50.36273        -0.87481
C         21.89751        51.15068        -1.15396
C         22.90179        52.89253         0.42175
C         21.87091        52.55887        -0.64845
C         22.92548        54.37033         0.78306
C         21.68520        55.17328         0.59680
C         22.87041        57.15456         1.49177
C         21.67077        56.51532         1.11060
C         22.83018        58.44522         2.05882
C         21.57816        59.13667         2.19351
C         22.74141        61.01601         3.23930
C         21.56942        60.43837         2.77805
C         24.38037         3.82819         0.53068
C         25.60146         6.06145         0.59988
C         24.79939         5.06589         0.01394
C         25.63992         7.42627         0.18188
C         24.48437         8.10872        -0.42298
C         25.59717        10.33208        -0.69761
C         24.41312         9.52945        -0.54120
C         25.70032        11.70138        -0.48157
C         24.39233        12.39797        -0.54208
C         25.65817        14.67009        -0.54768
C         24.36150        13.88519        -0.49711
C         25.63759        15.87426         0.38184
C         24.37528        16.62125         0.48209
C         25.66508        18.73335         1.02642
C         24.33908        17.99827         1.10014
C         25.59679        20.21000         1.41851
C         24.37125        20.89725         0.83472
C         25.68675        23.12495         0.89647
C         24.36167        22.36639         0.85988
C         25.71284        24.52856         0.44008
C         24.47135        25.19520         0.24077
C         25.77360        27.35338        -0.17996
C         24.50179        26.66707         0.09743
C         25.74479        28.75677        -0.52879
C         24.57150        29.46347        -0.75045
C         25.78004        31.64685        -1.31119
C         24.48747        30.90018        -1.11557
C         25.81438        33.10225        -1.02553
C         24.58676        33.76035        -0.74117
C         25.84798        36.00023        -1.00296
C         24.61103        35.24335        -0.64253
C         25.70475        37.33785        -1.74178
C         24.53797        38.11875        -1.16136
C         25.70350        40.33877        -1.85606
C         24.50849        39.59502        -1.27720
C         25.72700        41.74284        -1.22672
C         24.41809        42.50689        -1.41323
C         25.67033        44.57576        -0.76759
C         24.41906        43.84740        -1.21396
C         25.69351        46.02537        -1.23057
C         24.42612        46.76679        -1.45931
C         25.65139        48.91719        -0.83388
C         24.45277        48.26171        -1.40382
C         25.57640        50.26767        -0.47198
C         24.30722        50.99439        -0.46119
C         25.46157        53.05570         0.26702
C         24.26101        52.33278         0.05379
C         25.51216        54.36822         0.84438
C         24.21813        55.05806         1.05772
C         25.36369        57.06667         1.93966
C         24.21760        56.59925         1.05345
C         25.25510        58.31033         2.56914
C         24.03597        59.05282         2.56936
C         23.96395        60.32760         3.15826
C         26.74931         8.15081         0.74486
C         28.01678        10.36016         0.81336
C         27.22413         9.36127         0.22773
C         28.10750        11.71516         0.35045
C         26.95877        12.41015        -0.28121
C         28.07963        14.64286        -0.31041
C         26.91486        13.83457        -0.32849
C         28.19349        15.97614         0.16160
C         26.91985        16.59901         0.64101
C         28.13590        18.72256         1.19078
C         26.83959        18.05627         0.92010
C         28.14257        20.23086         1.34238
C         26.88747        20.98087         1.13470
C         28.19376        23.07879         0.74483
C         26.94035        22.33570         0.90858
C         28.17653        24.47910         0.46262
C         26.93742        25.20634         0.27795
C         28.23719        27.29905        -0.14670
C         26.96208        26.61516        -0.07449
C         28.28496        28.72454        -0.41342
C         27.03844        29.40080        -0.86017
C         28.38932        31.58029        -1.33628
C         27.05619        30.83981        -1.30294
C         28.31384        33.08067        -1.14130
C         27.06294        33.78722        -1.11776
C         28.26851        35.93066        -1.38948
C         27.09969        35.23478        -1.19557
C         28.31429        37.39576        -1.65905
C         27.01625        38.14670        -1.80276
C         28.21925        40.30115        -1.43546
C         27.02106        39.61478        -1.60089
C         28.24622        41.75726        -1.38264
C         26.97006        42.51708        -1.70133
C         28.14182        44.61795        -0.99239
C         26.96868        43.91551        -1.15627
C         28.11572        46.05907        -0.76154
C         26.92885        46.78821        -0.90971
C         28.07772        48.88428        -0.28876
C         26.88384        48.19880        -0.70591
C         28.05201        50.29171        -0.02025
C         26.79114        50.96904        -0.15773
C         28.35382        53.22582         0.92346
C         26.67207        52.37564        -0.07761
C         27.91762        54.32745         1.67474
C         26.66353        54.98281         1.44550
C         26.52291        56.28557         2.02389
C         29.25962        12.39116         0.86642
C         30.68481        14.51599         0.96913
C         29.76750        13.61605         0.40613
C         30.71223        15.91027         0.61635
C         29.43933        16.62455         0.36373
C         30.44849        18.85654         0.42988
C         29.37399        18.04966         0.70694
C         30.69876        20.20777         0.91614
C         29.43821        20.98934         1.26083
C         30.67405        23.06870         0.65473
C         29.43324        22.41569         0.89882
C         30.64426        24.46160         0.43270
C         29.41704        25.17653         0.37389
C         30.63193        27.38303         0.41782
C         29.40601        26.60985         0.16440
C         30.69080        28.81324         0.08603
C         29.45979        29.44914        -0.31592
C         30.70332        31.69578        -0.29841
C         29.43434        30.93404        -0.44033
C         30.77636        33.11848        -0.75292
C         29.53216        33.76413        -1.11882
C         30.81265        36.00351        -1.24588
C         29.54355        35.20958        -1.40563
C         30.73686        37.47311        -1.02977
C         29.53488        38.16223        -1.30135
C         30.67199        40.29505        -0.93791
C         29.48135        39.57932        -1.24061
C         30.67570        41.76033        -0.91107
C         29.41594        42.46654        -1.13608
C         30.58757        44.62941        -0.74759
C         29.41240        43.91833        -1.01860
C         30.55336        46.01390        -0.40462
C         29.32561        46.74125        -0.44163
C         30.47978        48.78524         0.30304
C         29.28604        48.13438        -0.15669
C         30.40127        50.13127         0.71106
C         29.23129        50.90912         0.57335
C         29.24320        52.19010         1.22416
C         31.95761        16.55630         0.89935
C         33.30542        18.74475         0.87986
C         32.31484        17.85473         0.46732
C         33.22463        20.18439         0.65527
C         31.97430        20.89825         0.60052
C         33.17914        23.01221         0.59157
C         31.94935        22.31392         0.60662
C         33.15961        24.47911         0.61535
C         31.92674        25.17293         0.07353
C         33.17715        27.37927         0.22533
C         31.95125        26.62846         0.48203
C         33.16072        28.76909         0.20264
C         31.90914        29.48264         0.09787
C         33.10034        31.68557         0.34082
C         32.00065        30.92074        -0.36225
C         33.10287        33.17991         0.15706
C         31.95838        33.81359        -0.56387
C         33.22474        36.03987        -0.33557
C         32.06083        35.26236        -0.85544
C         33.06175        37.50748         0.03907
C         31.89083        38.18851        -0.64586
C         33.05034        40.33579        -0.07523
C         31.85588        39.58911        -0.62860
C         33.16332        41.71379        -0.72351
C         31.84765        42.45175        -0.72590
C         33.04088        44.59042        -0.11896
C         31.92223        43.94402        -0.91307
C         32.94815        45.93461         0.22779
C         31.74464        46.68614         0.04772
C         31.68172        48.04054         0.40869
C         34.42344        20.92754         0.66960
C         35.67177        23.08322         0.58674
C         34.43633        22.34242         0.61937
C         35.73381        24.48306         0.49215
C         34.45419        25.22818         0.53547
C         35.72905        27.38254        -0.08825
C         34.42082        26.62618         0.00926
C         35.63715        28.84823         0.09033
C         34.42505        29.49115         0.20308
C         35.65276        31.72988         0.57369
C         34.38299        30.93778         0.54902
C         35.58203        33.20290         0.45458
C         34.40171        33.90298         0.29476
C         35.59434        36.08938         0.31484
C         34.42182        35.34141         0.19694
C         35.60524        37.51060         0.09259
C         34.39243        38.21837        -0.12326
C         35.59396        40.35408        -0.04839
C         34.37389        39.60882        -0.17200
C         35.52123        41.78048         0.07330
C         34.33070        42.48014        -0.13307
C         34.22207        43.85685         0.12880
C         36.93021        25.23576         0.45221
C         38.14922        27.38021         0.50176
C         36.97973        26.66059         0.29904
C         38.25442        28.81992         0.20395
C         36.90552        29.60205         0.04013
C         38.13450        31.71498         0.33927
C         36.93450        31.03841         0.30569
C         38.12072        33.19876         0.27862
C         36.85701        33.91339         0.64390
C         38.15412        36.14380         0.45195
C         36.86670        35.41899         0.64140
C         38.08185        37.55139         0.30865
C         36.84761        38.24121         0.16652
C         36.80949        39.65611         0.08395
C         39.41548        29.63287         0.57362
C         40.59604        31.81999         0.67610
C         39.39434        31.01368         0.46501
C         40.61932        33.17421         0.62015
C         39.40698        33.97409         0.33835
C         39.35315        35.43929         0.53006
O         31.40161        18.39431        -0.47916
O         36.89212        34.65955         1.90664
O         28.12642        19.34240         2.52577
O         37.71019        29.19282        -1.10454
O         12.84963        40.09117         2.98056
O         22.14304        25.74346        -1.66357
O         23.94986        48.87491        -2.63692
O         11.43980        34.99697         2.53651
O         24.95305        31.27933        -2.46135
O         24.88332        22.94225         2.11028
O         13.79012        27.03005        -1.81074
O         23.42700        54.53942         2.18409
O         29.79566        31.54835         0.84109
O         32.77738        37.66544         1.42097
O         27.05625        29.77567        -2.30268
O         29.23300        14.05896        -0.82917
O         22.98822        40.90277        -2.71112
O         13.99686        25.19758         1.24083
O         22.92873        36.41443        -2.07946
O         14.37811        42.55787         2.48552
O         25.17020        46.20692        -2.58923
O         22.34962        52.31310        -1.98613
O          9.47019        31.68793        -1.84223
O         30.37497        35.59025        -2.57748
O         13.93344        31.13666         2.07392
O         18.03644        37.79692         2.08446
O         24.44324        57.06770        -0.23577
O         24.18536        13.17963        -1.80578
O         21.32601        18.34432        -1.14938
O         17.56757        35.74919        -0.82384
O         26.30877        15.73213         1.68203
O         35.07004        26.83148        -1.27934
O         15.45229        33.34750         2.42778
O         35.02347        31.23271         1.82760
O         25.43108        35.89066         0.39755
O         33.14802        35.71005        -1.76667
O         38.73581        33.65348        -0.97093
O         13.73478        28.76576         1.39335
O         23.68175        27.34012         1.17048
O         19.64718        44.18577        -2.26947
O         21.93093        35.62302         1.34223
O         27.79171        37.75312        -2.99714
O         20.01266        53.40592        -2.00476
O         23.15499        45.42088         0.18451
O         11.02210        35.98284        -0.86577
O         13.43127        36.64792         2.93709
O         15.64825        19.52555         1.66387
O         30.33350        20.53501         2.30613
O         22.54975        28.99476        -2.00366
O         19.44350        17.37425         1.72569
O         16.33928        16.39343        -1.43205
O         26.75397         9.65306        -1.07545
O         15.21417        39.04094         2.69351
O         20.68356        38.23316         1.37646
O         18.22300        44.51491         1.20364
O         27.77320        53.14192        -0.37827
O         24.79427        38.95912         0.00086
O         15.39928        40.94277        -0.55018
O         16.82249        46.87623         1.21311
O         17.13620        48.39794        -2.24135
O         19.67993        39.61898        -1.74560
O         33.73781        25.09784         1.81026
O         24.28297         5.38907        -1.26349
O         32.66988        32.52552         1.42277
O         31.25456        26.98533         1.69467
O         18.72140        31.50864         2.16609
H         17.97211        31.91025         2.65735
O         32.81888        40.45131         1.35093
H         32.73485        39.50440         1.67381
O         10.27411        40.59107         2.98338
H         11.04421        40.63287         3.59813
O         26.88760        42.66019        -3.15835
H         27.67923        43.15288        -3.46278
O         22.16648        20.85729        -1.61232
H         21.95903        19.92256        -1.86668
O         32.39253        30.89860        -1.76523
H         31.63387        30.58785        -2.30430
O         22.43736        52.17379         1.60243
H         22.82319        52.64560         2.37816
O         32.02298        25.17856        -1.38038
H         32.02680        24.25127        -1.69784
O         12.36638        30.00842        -1.79624
H         11.56943        30.47263        -2.13540
O          6.99411        31.10788        -2.30867
H          7.88539        31.05027        -2.72844
O         25.75657        15.24816        -1.87586
H         25.40653        14.57084        -2.50111
O         22.09331        13.62819         1.89526
H         22.01865        14.53462         2.26749
O         25.86622        41.55796         0.19694
H         25.88684        42.44585         0.62629
O         28.94694        31.42026        -2.67551
H         28.38348        30.76398        -3.15134
O         32.30947        44.12844        -2.33317
H         32.40039        45.09338        -2.48846
O         25.51765        40.38328        -3.27506
H         26.08724        41.09681        -3.64797
O         16.39915        51.19876        -2.65157
H         16.49939        50.28092        -2.99620
O         24.03782        17.83401         2.52418
H         24.35691        18.65498         2.97884
O         20.63095        50.60540        -3.11720
H         20.89341        51.53587        -3.30775
O         16.13904        27.88010        -2.04239
H         15.26428        27.85268        -2.50192
O         33.48363        41.47898        -2.12553
H         33.30352        42.32092        -2.60437
O         17.10600         9.61422        -0.69049
H         17.32200         9.81452        -1.62408
O         25.33497        37.00491        -3.09094
H         26.14476        37.07617        -3.64916
O         25.43990        20.20315         2.87725
H         26.31856        19.93734         3.24348
O         25.65235        44.53892         0.69311
H         24.76204        44.87232         0.97220
H          5.09777        31.59667        -0.30002
H          5.23801        34.01312         0.00463
H          7.39391        27.13956        -0.06215
H          6.26571        29.32947        -0.33148
H          6.48340        36.12443        -0.13700
H          7.74436        38.23081         0.06958
H          9.82443        22.69006         0.04116
H          8.57544        24.90925        -0.01504
H          8.85566        40.27568         0.61438
H         10.06817        42.46324         0.94597
H         12.24477        18.38355         0.03458
H         11.04787        20.52195         0.02341
H         11.24075        44.57705         0.86476
H         12.40263        46.70908         0.49474
H         14.78410        13.92288         0.17527
H         13.42860        16.17521         0.02298
H         13.60831        48.86610         0.22550
H         14.78446        50.97253        -0.24701
H         17.85399         9.90246         1.19677
H         16.04767        11.79243        -0.02762
H         15.89349        53.04873        -0.44061
H         17.09900        55.09003         0.11794
H         19.79561         5.39361        -0.39838
H         18.54553         7.52547        -0.28668
H         18.26152        57.08189         0.90735
H         19.44007        59.06641         1.80971
H         23.05110         2.14766         0.38042
H         21.16270         3.23395        -0.57947
H         22.71581        62.01703         3.69200
H         20.61421        60.97501         2.87259
H         24.94784         3.35927         1.34800
H         26.27069         5.76879         1.42425
H         26.09869        58.68710         3.17166
H         24.87835        60.79180         3.55531
H         27.27448         7.69326         1.59761
H         28.64856        10.07933         1.67053
H         28.53637        54.68655         2.51047
H         27.41077        56.71894         2.51358
H         29.82205        11.87338         1.65885
H         31.43518        14.15149         1.68710
H         31.29213        50.59969         1.15507
H         29.96743        52.33189         2.04005
H         32.70723        15.96984         1.45278
H         34.17182        18.37028         1.44524
H         33.80626        46.42644         0.71126
H         32.58652        48.53832         0.78828
H         35.38008        20.38882         0.73584
H         36.61114        22.50977         0.59702
H         36.42453        42.32875         0.38461
H         35.07737        44.37988         0.58677
H         37.88630        24.70155         0.56558
H         39.04453        26.86178         0.87833
H         39.01730        38.12930         0.25425
H         37.74826        40.22118         0.18107
H         40.33470        29.12353         0.90105
H         41.52998        31.27738         0.88779
H         41.55914        33.71282         0.81416
H         40.30470        35.99392         0.54707
