         420
 CSIRO Nanostructure Databank - Neutral Graphene Oxide Data Set
C         28.02795        27.36542         1.44155
C         28.01460        28.81530         1.35267
C         26.82705        29.52693         1.57913
C         27.95439        31.62896         1.09348
C         26.80440        30.91365         1.48578
C         27.93794        33.08555         0.94797
C         26.82952        33.83490         1.30881
C         27.85233        35.95281         0.67495
C         26.81262        35.25751         1.22839
C         27.84512        37.46112         0.69213
C         26.63669        38.07855         0.04131
C         27.84542        40.19544        -0.14266
C         26.64716        39.40836        -0.24608
C         27.79135        41.65646        -0.36044
C         26.56370        42.44437        -0.11681
C         27.80798        44.56848         0.01663
C         26.58297        43.80466        -0.05331
C         27.86282        45.95266         0.06749
C         30.51938        27.36581         1.40893
C         29.18059        26.67238         1.40409
C         30.46051        28.79764         0.88860
C         29.19999        29.51271         0.99054
C         30.30408        31.62206         0.23093
C         29.14189        30.91594         0.80557
C         30.32409        33.10229         0.22708
C         29.12207        33.76415         0.46654
C         30.34107        35.96788         0.00606
C         29.02429        35.20728         0.20039
C         30.33529        37.43392         0.18280
C         29.12523        38.12590         0.23599
C         30.34865        40.25605         0.00669
C         29.09368        39.54756         0.05270
C         30.37262        41.67362        -0.07050
C         29.10367        42.40256        -0.26546
C         30.38332        44.57311         0.22712
C         29.05740        43.81775         0.17843
C         30.33369        46.02764         0.04885
C         29.09390        46.65963         0.06683
C         32.87430        24.48394         0.44502
C         31.75161        25.11588         0.90667
C         32.89593        27.31655         0.40010
C         31.60027        26.55400         0.70803
C         32.91498        28.78775         0.54775
C         31.61943        29.45561         0.52893
C         32.90186        31.59191        -0.20093
C         31.58478        30.85718         0.04711
C         32.83274        33.10135         0.02124
C         31.58130        33.80496         0.06291
C         32.82002        35.95019         0.17095
C         31.59813        35.22326         0.10985
C         32.81936        37.39149         0.17970
C         31.58288        38.12188         0.15228
C         32.82273        40.25330         0.05691
C         31.58088        39.54377         0.10763
C         32.82778        41.66711        -0.11605
C         31.58230        42.38680        -0.10581
C         32.77856        44.53325        -0.36717
C         31.61011        43.83475        -0.12290
C         32.80685        45.97303        -0.31350
C         31.59706        46.71305        -0.14717
C         32.87262        48.78097        -0.23998
C         31.65929        48.12559        -0.16351
C         35.42845        23.01234        -0.08475
C         35.29949        24.48193        -0.41160
C         34.09255        25.19126         0.16333
C         35.39857        27.27151         0.68758
C         34.14070        26.55921         0.36841
C         35.38463        28.79022         0.68641
C         34.08647        29.49043         0.51194
C         35.35524        31.66754         0.23554
C         34.05303        30.99733         0.62619
C         35.32779        33.05903         0.03819
C         34.04764        33.79608         0.05308
C         35.27542        35.96894         0.08971
C         34.05418        35.23627         0.10990
C         35.27169        37.36544         0.23107
C         34.04815        38.10003         0.22821
C         35.26321        40.28871         0.02818
C         34.05873        39.54912         0.13423
C         35.26966        41.67726        -0.24554
C         34.04223        42.36139        -0.32642
C         35.29604        44.51684        -0.65834
C         33.99654        43.77870        -0.83689
C         35.30121        45.90553        -0.55305
C         34.06065        46.65144        -0.41638
C         35.36594        48.75852        -0.26715
C         34.09205        48.06496        -0.31768
C         35.40139        50.20365        -0.04520
C         37.70833        23.13426        -0.96841
C         36.54685        22.36803        -0.44204
C         37.78063        24.55587        -0.52570
C         36.62148        25.18515        -0.15517
C         37.94688        27.27764         0.42975
C         36.68681        26.43946         0.67958
C         37.90354        28.81168         0.38943
C         36.62511        29.54185         0.41688
C         37.81564        31.63823        -0.13812
C         36.58497        30.92705         0.16181
C         37.78459        33.07808        -0.22225
C         36.55083        33.76456        -0.12979
C         37.80696        35.91902         0.11861
C         36.53249        35.25870        -0.36265
C         37.83255        37.39243         0.34495
C         36.53201        38.12151         0.42850
C         37.80903        40.31512        -0.06030
C         36.54670        39.61829         0.28042
C         37.78787        41.66644        -0.40229
C         36.52919        42.39150        -0.46612
C         37.75740        44.48480        -1.18319
C         36.51844        43.76303        -0.70492
C         37.76390        45.94769        -0.77349
C         36.57313        46.62511        -0.54918
C         37.84544        48.82868        -0.17992
C         36.55511        48.06271        -0.37589
C         37.76793        50.24797        -0.75364
C         36.51913        50.92481        -0.24098
C         40.25115        20.28632        -1.11090
C         39.05724        20.93917        -1.23133
C         40.26842        23.14961        -1.11856
C         39.00511        22.40486        -1.27518
C         40.26809        24.54937        -0.89394
C         39.06248        25.24763        -0.53708
C         40.31500        27.35761        -0.37524
C         39.11670        26.60825        -0.17853
C         40.30241        28.79475        -0.31462
C         39.09667        29.51474        -0.11828
C         40.27546        31.62297        -0.64660
C         39.02527        30.91835        -0.30276
C         40.28696        33.13949        -0.60940
C         39.01880        33.82176        -0.32941
C         40.28771        35.92996        -0.18245
C         39.06746        35.21076        -0.20344
C         40.25754        37.41009        -0.46318
C         39.05148        38.16369         0.04812
C         40.27634        40.25432        -0.37506
C         39.03381        39.54495        -0.10257
C         40.26764        41.62669        -0.59133
C         39.03832        42.37568        -0.64689
C         40.31612        44.47349        -0.98718
C         39.06184        43.75695        -0.90040
C         40.30134        45.94879        -1.24193
C         39.01289        46.70024        -1.02101
C         40.28935        48.82757        -0.64748
C         39.07860        48.12833        -0.69383
C         40.26901        50.27678        -0.42855
C         39.05794        50.99526        -0.46297
C         40.25273        53.09358        -0.14487
C         39.07047        52.39964        -0.35006
C         42.72477        20.29347        -0.90561
C         41.48686        20.99619        -1.08646
C         42.73602        23.13068        -1.15082
C         41.49725        22.42988        -1.14670
C         42.76028        24.53870        -1.07825
C         41.51421        25.26449        -0.91605
C         42.73229        27.43046        -0.99252
C         41.50186        26.66522        -0.75234
C         42.78014        28.84283        -0.61480
C         41.54993        29.51743        -0.44977
C         42.76755        31.64950        -0.38964
C         41.55463        30.92922        -0.45998
C         42.73300        33.08146        -0.21053
C         41.55345        33.81506        -0.26307
C         42.73296        35.98423         0.14695
C         41.52613        35.25252        -0.08276
C         42.76459        37.40592         0.05886
C         41.54425        38.13590        -0.18360
C         42.76945        40.26793        -0.22367
C         41.53020        39.51787        -0.29049
C         42.76132        41.62845        -0.40887
C         41.55487        42.31577        -0.98437
C         42.78156        44.55131        -0.64219
C         41.53091        43.81827        -0.80800
C         42.77117        45.94696        -0.67495
C         41.62983        46.72370        -1.27522
C         42.74911        48.86721        -0.52319
C         41.54765        48.15590        -0.75391
C         42.74390        50.29014        -0.29329
C         41.49584        50.98564        -0.27219
C         42.71470        53.09318         0.10014
C         41.48176        52.40096        -0.09893
C         43.92205        20.93193        -0.96662
C         45.26042        23.08806        -0.96644
C         44.01162        22.36496        -1.42367
C         45.24484        24.50784        -0.84703
C         44.01993        25.21617        -1.00267
C         45.29051        27.39967        -0.72673
C         44.06389        26.67268        -1.09100
C         45.26797        28.80517        -0.57128
C         44.01718        29.53603        -0.55501
C         45.25864        31.65101        -0.16827
C         44.01207        30.94430        -0.35174
C         45.26020        33.03869         0.09180
C         43.96602        33.72955         0.27279
C         45.25475        35.92517         0.62332
C         43.93907        35.22067         0.52051
C         45.25902        37.43608         0.44801
C         43.98403        38.13568         0.17271
C         45.24666        40.18592        -0.32577
C         44.02414        39.53558        -0.02889
C         45.22766        41.60676        -0.63584
C         44.02785        42.37480        -0.11154
C         45.26234        44.49402        -0.43047
C         44.02714        43.83565        -0.45799
C         45.26891        45.95007        -0.24522
C         43.97363        46.70796        -0.34210
C         45.20699        48.88246        -0.32675
C         44.00360        48.18268        -0.48428
C         45.21349        50.29243        -0.11696
C         43.95720        50.99902        -0.09269
C         43.90476        52.41370         0.11507
C         47.66107        23.09549        -0.58433
C         46.47053        22.41022        -0.84344
C         47.69243        24.49545        -0.48614
C         46.47357        25.22465        -0.62897
C         47.71837        27.36038        -0.32918
C         46.48711        26.65708        -0.55033
C         47.72036        28.78088        -0.24816
C         46.49442        29.50798        -0.33748
C         47.72717        31.62583         0.02321
C         46.49286        30.92495        -0.17216
C         47.72151        33.05365         0.14179
C         46.48427        33.76140         0.20361
C         47.71241        35.90275         0.33066
C         46.49916        35.18593         0.36804
C         47.71890        37.34788         0.19012
C         46.52622        38.05538         0.05477
C         47.84641        40.19741        -0.50970
C         46.49699        39.43085        -0.45795
C         47.82351        41.66812        -0.43756
C         46.57636        42.39251        -0.68011
C         47.74841        44.52412        -0.14155
C         46.52797        43.82592        -0.39479
C         47.78581        45.95609        -0.16094
C         46.54748        46.67370        -0.48220
C         47.75801        48.87137        -0.07961
C         46.51245        48.18548        -0.45395
C         47.66441        50.25905         0.17822
C         46.45767        50.94087         0.11895
C         50.16502        24.53165        -0.12634
C         48.94381        25.20961        -0.27394
C         50.17222        27.34294        -0.01705
C         48.94301        26.63522        -0.21184
C         50.15822        28.75712         0.11014
C         48.95450        29.47947        -0.01054
C         50.19634        31.62972         0.23651
C         48.95288        30.91479         0.09814
C         50.19555        33.06062         0.25750
C         48.95454        33.76668         0.23633
C         50.18846        35.89936         0.36665
C         48.95214        35.18935         0.29049
C         50.16569        37.33089         0.42277
C         48.98565        38.04856         0.20366
C         50.18661        40.20299         0.26178
C         49.03544        39.48710         0.02598
C         50.30149        41.64832        -0.17313
C         48.97697        42.38001        -0.11791
C         50.21941        44.52910         0.16976
C         48.97821        43.80301        -0.01458
C         50.21976        45.96754         0.16930
C         48.98561        46.68322        -0.01788
C         50.21592        48.79768         0.22487
C         48.97083        48.12939         0.01910
C         51.36931        25.22252         0.01445
C         52.67565        27.35297         0.06058
C         51.40868        26.62079         0.04414
C         52.67647        28.74489         0.23246
C         51.40143        29.45168         0.60673
C         52.65224        31.63361         0.35319
C         51.42195        30.93254         0.32869
C         52.66201        33.05804         0.36636
C         51.42712        33.77451         0.35241
C         52.67442        35.92284         0.52088
C         51.42383        35.20260         0.42216
C         52.68775        37.32312         0.66055
C         51.40383        38.02815         0.78507
C         52.69254        40.26034         0.66379
C         51.39165        39.55451         0.79265
C         52.68697        41.62170         0.53737
C         51.37163        42.35529         0.65803
C         52.66049        44.53586         0.53487
C         51.42998        43.83653         0.36593
C         52.66177        45.96806         0.58901
C         51.42972        46.67867         0.39156
C         51.38782        48.10843         0.40266
C         55.10386        27.37221        -0.15692
C         53.91182        26.68101        -0.15375
C         55.12145        28.77946         0.01829
C         53.89248        29.47706         0.19633
C         55.12970        31.60738         0.32240
C         53.90205        30.90948         0.31856
C         55.13534        33.05053         0.43498
C         53.90799        33.76852         0.43470
C         55.14298        35.90361         0.64021
C         53.91389        35.19692         0.51849
C         55.14797        37.34284         0.73453
C         53.91471        38.06283         0.71669
C         55.16212        40.20410         0.80042
C         53.92784        39.49584         0.71217
C         55.18055        41.64074         0.78192
C         53.96046        42.36791         0.26962
C         55.08840        44.51536         0.92206
C         53.89023        43.82481         0.65411
C         55.06007        45.93694         1.04613
C         53.89175        46.63694         0.85396
C         56.34583        29.50875         0.02481
C         56.34850        30.87110         0.18897
C         56.34683        33.78144         0.54587
C         56.35119        35.15488         0.65418
C         56.36058        38.07639         0.85265
C         56.36743        39.45095         0.90996
C         56.33221        42.39744         1.06593
C         56.30868        43.78671         1.09564
O         30.68030        31.04095        -1.09362
O         43.37465        27.18392        -2.28766
O         29.73387        44.05712         1.44715
O         31.91996        26.95331        -0.64425
O         43.75959        34.28124         1.63468
O         40.26072        32.41182        -1.89060
O         38.25536        28.05544         1.62641
O         28.51021        42.14172        -1.57438
O         39.51870        46.34873        -2.42358
O         35.33981        28.01664         1.96171
O         45.32003        36.81347         1.78518
O         36.53003        38.98226         1.62031
O         29.50307        35.57238        -1.13809
O         38.09070        22.91014        -2.35570
O         45.80948        42.01391        -1.88321
O         37.88091        36.41976         1.48331
O         51.24673        38.80973         2.03423
O         46.60604        47.43212        -1.73127
O         44.56815        46.34071         0.98386
O         47.25754        39.61519        -1.70708
O         44.13526        22.30324        -2.89720
H         43.30223        21.91600        -3.24166
O         51.32562        29.34650         2.08503
H         50.51247        29.81733         2.36777
O         50.73649        41.67622        -1.55514
H         50.02553        41.29434        -2.11180
O         40.09475        37.46768        -1.94067
H         40.86665        37.01451        -2.34267
O         44.20923        42.32235         1.35175
H         43.51851        42.88258         1.76507
O         36.56588        35.44793        -1.81806
H         35.83822        34.91949        -2.20946
O         33.83744        43.65140        -2.30160
H         33.02326        43.12875        -2.46413
O         27.74295        37.81270         2.12772
H         27.70024        38.79159         2.18317
O         50.92982        42.24066         2.04270
H         51.62576        42.61487         2.62194
O         54.11914        42.37306        -1.20874
H         54.93988        42.87362        -1.40497
O         41.67502        42.12671        -2.44636
H         40.87322        42.51432        -2.85873
O         33.24388        31.38659        -1.58977
H         32.39633        31.39619        -2.09178
O         37.65803        50.12581        -2.19568
H         37.61050        51.02671        -2.57680
O         41.99809        46.87081        -2.68467
H         41.15287        46.99699        -3.17735
O         37.62363        44.47145        -2.64812
H         38.27772        45.13021        -2.99189
O         33.77253        31.32532         2.01545
H         34.44220        30.87715         2.57436
O         38.02216        48.98773         1.26362
H         37.96115        48.10183         1.67761
O         36.82269        25.91016         2.02846
H         36.84472        26.69819         2.62056
O         30.94980        27.42342         2.80646
H         30.25797        27.89775         3.31377
O         35.07929        24.55825        -1.86032
H         35.79934        24.05805        -2.30277
H         27.06252        26.84424         1.52749
H         25.91220        28.97940         1.84695
H         25.86193        31.44011         1.68396
H         25.93660        33.34183         1.71437
H         25.93872        35.79817         1.61784
H         25.72086        37.48264        -0.07908
H         25.73509        39.89133        -0.62663
H         25.60280        41.91375        -0.04859
H         25.63409        44.35557         0.03435
H         26.92860        46.53085         0.01595
H         29.16489        25.57592         1.48509
H         29.04115        47.75476        -0.00746
H         32.90002        23.38526         0.46425
H         30.94220        24.53463         1.37068
H         32.87449        49.87813        -0.22867
H         30.73875        48.71826        -0.08118
H         34.58436        22.45517         0.34515
H         34.48924        50.71417         0.29271
H         36.63976        21.28263        -0.29409
H         36.49421        52.01280        -0.08553
H         40.27562        19.18758        -1.06797
H         38.12488        20.37006        -1.34213
H         40.24105        54.18672        -0.02951
H         38.13141        52.96676        -0.41061
H         42.68180        19.21626        -0.68373
H         42.69604        54.18339         0.24181
H         44.84494        20.35379        -0.82186
H         44.83394        52.97706         0.27177
H         48.58494        22.51014        -0.49248
H         46.51577        21.32066        -0.97167
H         48.56673        50.83097         0.43409
H         46.47499        52.02179         0.31076
H         50.19825        23.43455        -0.14194
H         50.24700        49.89533         0.22827
H         52.29543        24.63887         0.09992
H         52.31373        48.68009         0.54729
H         56.05364        26.83794        -0.30327
H         53.92682        25.59448        -0.31197
H         55.99558        46.47141         1.26528
H         53.91795        47.73256         0.92032
H         57.29242        28.96371        -0.10150
H         57.31020        31.40042         0.18755
H         57.30948        33.25437         0.56303
H         57.31729        35.66703         0.74942
H         57.32174        37.54801         0.89638
H         57.33133        39.97096         0.99078
H         57.27560        41.88933         1.31181
H         57.22831        44.34323         1.32489
