         470
 CSIRO Nanostructure Databank - Neutral Graphene Oxide Data Set
C         37.88796        49.60214        -1.59540
C         36.79005        50.16754        -2.24141
C         38.02834        52.22716        -2.50394
C         36.86355        51.48803        -2.69264
C         40.77224        48.50391        -1.46557
C         40.18795        49.65167        -0.65628
C         39.06599        50.33741        -1.40253
C         40.40047        52.43059        -1.69092
C         39.15331        51.66635        -1.86272
C         40.54535        53.69270        -2.29246
C         42.62490        48.35122         0.20170
C         41.89172        47.90142        -1.05323
C         42.59973        49.90062         0.26585
C         41.36042        50.57909        -0.27037
C         42.70249        52.62213        -0.89026
C         41.48931        51.89963        -0.95043
C         42.79085        53.93062        -1.41798
C         41.69936        54.45150        -2.12037
C         45.46021        45.76096         0.10389
C         44.26042        46.49459        -0.18417
C         45.04811        48.49296         1.12978
C         44.02150        47.74821         0.29148
C         45.14958        49.90185         0.53854
C         43.91053        50.64278         0.29090
C         45.22408        52.65017        -0.74676
C         43.94009        52.04618        -0.28555
C         45.27756        53.97259        -1.11490
C         43.99646        54.78033        -1.03376
C         45.28080        56.61145        -2.14102
C         44.09751        56.08610        -1.76950
C         47.87625        44.14710         1.02538
C         47.63243        45.55973         1.34774
C         46.47211        46.33414         0.82644
C         47.51448        48.33797         1.70809
C         46.37926        47.72941         1.22820
C         47.62468        50.32549         0.92196
C         46.40826        50.54995         0.16332
C         47.75196        52.59076        -0.64022
C         46.46594        51.87658        -0.62946
C         47.77554        53.92227        -1.12360
C         46.53770        54.61669        -1.42454
C         47.79374        56.61719        -2.14135
C         46.54866        55.93864        -1.90248
C         47.87993        57.96126        -2.51758
C         50.20128        44.25132         1.85589
C         49.03867        43.52915         1.37245
C         50.14586        45.63044         1.88006
C         48.88364        46.34753         1.76839
C         50.01467        48.55738         1.33972
C         48.87462        47.82115         1.59851
C         50.09773        50.10875         1.22863
C         48.87988        50.73113         0.54716
C         50.19630        52.62501        -0.34729
C         48.95182        51.93925        -0.25126
C         50.23233        53.94276        -0.87124
C         49.02471        54.56399        -1.29092
C         50.36518        56.69929        -1.84751
C         49.04574        55.87760        -1.94190
C         50.26924        58.15477        -1.95860
C         49.07413        58.70139        -2.42707
C         52.69183        41.54175         2.70405
C         51.52214        42.17200         2.32461
C         52.63988        44.32378         2.43027
C         51.45939        43.57749         2.18575
C         52.63204        45.80469         2.33459
C         51.33252        46.47978         2.07739
C         52.61805        48.40676         0.98745
C         51.30166        47.78443         1.33259
C         52.59322        49.82800         0.50890
C         51.36743        50.62615         0.55697
C         52.67349        52.64109        -0.06094
C         51.41258        51.92065         0.02570
C         52.64614        54.08513        -0.30996
C         51.46953        54.70790        -0.80561
C         52.61689        56.90133        -0.83342
C         51.49670        56.08880        -1.13717
C         52.59598        58.33610        -1.08806
C         51.42755        58.95181        -1.60400
C         52.55343        61.12091        -1.58567
C         51.42840        60.35853        -1.81086
C         55.15767        40.18567         3.53108
C         55.08640        41.59305         3.38586
C         53.87832        42.27224         2.97517
C         55.03335        44.52998         3.05976
C         53.83658        43.68826         2.81571
C         55.09900        45.88869         2.44596
C         53.90263        46.51199         2.04115
C         55.13027        48.50480         1.38124
C         53.90733        47.81391         1.48377
C         55.26180        49.81625         0.61462
C         53.94084        50.55029         0.33613
C         55.03922        52.80683         0.67958
C         53.86526        52.00711         0.27875
C         55.08802        54.21529         0.19911
C         53.79789        54.88566        -0.10438
C         54.91229        57.12642         0.13364
C         53.77208        56.27816        -0.30208
C         54.95465        58.54114        -0.30988
C         53.76280        59.13495        -0.83845
C         54.96596        61.31669        -0.96161
C         53.75910        60.53375        -1.12170
C         55.00013        62.71573        -1.20448
C         57.60402        40.10475         3.22197
C         56.35055        39.47986         3.48138
C         57.66477        41.56593         3.43574
C         56.30962        42.34667         3.60135
C         57.59710        44.48354         3.01542
C         56.33787        43.83008         3.39236
C         57.58227        45.99902         2.98551
C         56.31949        46.58255         2.36327
C         57.59007        48.64703         1.81604
C         56.33284        47.90433         1.85526
C         57.55708        50.05435         1.51254
C         56.38207        50.67696         1.16642
C         57.56713        52.94011         1.22276
C         56.30269        52.15302         1.13338
C         57.53931        54.36172         1.04410
C         56.31757        54.99740         0.49028
C         57.45132        57.25355         0.67979
C         56.17452        56.47601         0.62835
C         57.40201        58.67922         0.24260
C         56.13507        59.28819        -0.22959
C         57.42319        61.41264        -0.56383
C         56.17216        60.66985        -0.58140
C         57.40723        62.82868        -0.79995
C         56.17875        63.44474        -1.10236
C         59.78480        37.25820         2.17840
C         58.70225        37.96685         2.56910
C         60.00362        40.07870         2.55440
C         58.74257        39.39678         2.78828
C         60.05839        41.54902         2.78830
C         58.80226        42.32374         2.94016
C         59.96052        44.44063         2.27103
C         58.76305        43.73775         2.81687
C         60.02303        45.91994         2.29810
C         58.83848        46.62549         2.42718
C         60.06839        48.75661         2.12035
C         58.81030        48.02401         2.11897
C         60.04974        50.13756         1.99891
C         58.85955        50.80506         1.36507
C         59.94697        53.09499         1.81948
C         58.73616        52.29408         1.57495
C         59.98506        54.48524         1.33157
C         58.73570        55.11618         1.03706
C         59.94013        57.20384         0.57385
C         58.73928        56.51382         0.70104
C         59.96120        58.58205         0.01962
C         58.66834        59.30430        -0.23544
C         59.94902        61.40326        -0.83464
C         58.65346        60.75666        -0.41547
C         59.90668        62.90711        -0.68991
C         58.65915        63.57887        -0.73653
C         59.85876        65.70197        -0.77646
C         58.66636        64.98918        -0.74880
C         61.42766        36.31230         0.00171
C         61.85592        37.42614         0.71377
C         61.13612        37.88237         1.97876
C         62.41063        40.02926         1.79689
C         61.10347        39.38709         2.08365
C         62.53272        41.52103         2.01844
C         61.33313        42.27676         2.49337
C         62.48839        44.43701         1.81308
C         61.22696        43.69810         2.04199
C         62.47998        45.86870         1.84783
C         61.28086        46.59131         2.07998
C         62.55819        48.71009         2.05728
C         61.32680        48.02943         2.15986
C         62.60183        50.15790         2.32222
C         61.26267        50.90190         2.28662
C         62.50256        53.08686         1.75552
C         61.25261        52.39117         2.10237
C         62.46315        54.48170         1.47182
C         61.19864        55.18049         1.26319
C         62.38039        57.33752         0.84286
C         61.19164        56.57028         0.86810
C         62.40259        58.72572         0.50191
C         61.19813        59.38780         0.11655
C         62.40256        61.47740        -0.23425
C         61.18530        60.74962        -0.22731
C         62.39710        62.89380        -0.66308
C         61.10890        63.63816        -0.68476
C         62.38528        65.85227        -0.98619
C         61.10397        65.05200        -0.73889
C         62.33292        67.26071        -0.43167
C         63.41343        36.40580        -1.36670
C         62.17600        35.83759        -1.08605
C         63.93047        37.51106        -0.64503
C         63.05764        38.09568         0.32353
C         64.42147        40.13952         0.30974
C         63.34405        39.40689         0.83287
C         64.51999        41.56756         0.55261
C         63.56910        42.26165         1.28358
C         64.82502        44.40149         1.07693
C         63.60413        43.70740         1.40501
C         64.85127        45.83258         1.22837
C         63.70310        46.56885         1.54929
C         64.91575        48.73396         1.29767
C         63.75153        48.02114         1.63426
C         65.12765        50.15860         1.67001
C         63.88423        50.94604         2.15657
C         64.88387        53.24425         1.90285
C         63.74788        52.42505         1.93202
C         64.92764        54.57213         1.41400
C         63.66888        55.21019         1.31209
C         64.95475        57.40371         1.11226
C         63.62542        56.67215         1.24432
C         64.89109        58.79283         0.63342
C         63.64343        59.45010         0.44494
C         64.85605        61.59318         0.15667
C         63.62315        60.83724         0.08209
C         64.84263        62.98458         0.06558
C         63.67648        63.69065        -0.46537
C         64.77402        65.89604        -0.24467
C         63.64437        65.17236        -0.46448
C         64.79639        67.38053        -0.53500
C         63.44853        67.96718        -0.21557
C         66.32421        33.04074        -2.08524
C         65.23947        33.81527        -2.34880
C         66.35464        35.91430        -1.64217
C         65.25073        35.22739        -2.09125
C         66.37973        37.35366        -1.37318
C         65.24902        38.09158        -0.87554
C         66.63505        40.12039        -0.83872
C         65.43250        39.45059        -0.47503
C         66.73683        41.60088        -0.71581
C         65.63284        42.34137        -0.03276
C         67.20423        44.32859         0.34599
C         65.87605        43.70265         0.48062
C         67.29454        45.81772         0.55497
C         65.99363        46.53481         0.63913
C         67.23186        48.74508         0.15890
C         65.98144        48.05298         0.55734
C         67.27395        50.10365         0.23186
C         66.30697        50.83361         1.03705
C         67.56726        52.95948         0.59555
C         66.63492        52.13366         1.33690
C         67.28036        54.43808         0.27446
C         66.17705        55.22121         1.01545
C         67.36149        57.33237         0.45444
C         66.18118        56.60721         0.85784
C         67.35807        58.74285         0.40040
C         66.11533        59.47394         0.44502
C         67.33633        61.59361         0.33175
C         66.10554        60.88954         0.33702
C         67.33120        63.05828         0.54888
C         66.01648        63.77246         0.48825
C         67.29643        65.99192         0.14561
C         66.00884        65.26252         0.27574
C         67.23522        67.44324         0.16291
C         65.99394        68.11773         0.02799
C         67.12926        70.20993         0.55335
C         65.97985        69.50941         0.18668
C         68.81239        31.44004        -2.11489
C         68.83393        32.83057        -1.63552
C         67.54799        33.61002        -1.50493
C         68.88654        35.83531        -1.66236
C         67.60152        35.14236        -1.38536
C         68.86287        37.24856        -1.81934
C         67.63920        37.99322        -1.50710
C         68.86966        40.12762        -1.95322
C         67.71505        39.40270        -1.36594
C         69.00951        41.60989        -1.73103
C         68.14309        42.17609        -0.63207
C         69.31221        44.37318        -0.97346
C         68.24882        43.67754        -0.48488
C         69.62268        45.74599        -0.46845
C         68.55616        46.61077         0.23411
C         69.68370        48.65169        -0.53037
C         68.33207        47.93594        -0.52230
C         69.76471        50.08143        -0.06503
C         68.45138        50.82138        -0.39416
C         69.71781        53.00229        -0.63361
C         68.54196        52.29371        -0.08661
C         69.73432        54.50940        -0.52491
C         68.56096        55.22523         0.04873
C         69.76171        57.37877        -0.30694
C         68.56041        56.59948         0.09883
C         69.81030        58.82004        -0.00320
C         68.58533        59.48484         0.22413
C         69.79494        61.64872        -0.07840
C         68.55302        60.91010         0.25077
C         69.79381        63.14322        -0.18978
C         68.57993        63.85272         0.33218
C         69.76757        66.02465         0.19318
C         68.50705        65.32392         0.16356
C         69.72224        67.49084         0.26374
C         68.42632        68.17905         0.38704
C         69.57708        70.27780         1.13961
C         68.37934        69.56834         0.65982
C         69.48655        71.61413         1.58387
C         71.16361        31.56287        -2.74374
C         69.94696        30.82433        -2.53888
C         71.23536        32.89745        -2.49830
C         70.13955        33.61781        -1.82897
C         71.24689        35.81534        -2.23536
C         70.07851        35.10790        -1.90063
C         71.23875        37.19463        -2.36688
C         70.05904        37.93744        -2.17680
C         71.21319        40.10720        -2.66633
C         70.08721        39.39126        -2.31868
C         71.28348        41.54121        -2.60375
C         70.27901        42.28906        -2.05579
C         71.43253        44.54894        -2.40800
C         70.15324        43.80293        -2.11925
C         71.67385        45.80141        -1.99869
C         70.81676        46.47145        -0.99023
C         72.08806        48.66137        -0.90298
C         70.84057        47.96003        -0.81605
C         72.14052        50.04533        -0.83739
C         70.99237        50.82150        -0.56568
C         72.18018        52.99359        -0.76468
C         71.00053        52.24839        -0.66275
C         72.19701        54.40675        -0.69192
C         71.05686        55.16737        -0.52317
C         72.30814        57.40935        -0.26710
C         71.07712        56.64631        -0.53978
C         72.28790        58.74764        -0.06202
C         71.05957        59.52501        -0.02955
C         72.25875        61.72945         0.24363
C         71.07825        60.93138         0.03142
C         72.26568        63.09143         0.24270
C         71.11491        63.92755        -0.27626
C         72.14113        66.05390         0.74438
C         70.99204        65.35356         0.25591
C         72.11129        67.37352         1.11238
C         70.99700        68.23684         0.73407
C         71.91044        70.27824         1.86356
C         70.82301        69.60905         1.27694
C         71.79385        71.59614         2.29870
C         70.57723        72.26766         2.14853
O         47.89496        45.88686         2.74798
O         66.06688        52.75171         2.44950
O         51.87699        46.48336         3.43226
O         49.98168        55.97273        -3.05675
O         53.25649        49.93545        -0.80253
O         60.28465        43.88530         0.91998
O         64.09158        35.91229        -2.49131
O         57.12407        41.96358         4.73519
O         64.31146        57.25796         2.41900
O         55.54857        44.52511         4.43875
O         65.55204        47.21331        -0.58438
O         69.42260        53.81832        -1.82831
O         46.56424        50.58894        -1.31737
O         43.86881        51.87710         1.17223
O         68.34782        41.12135        -2.93667
O         56.06488        54.47907        -0.88177
O         59.34910        58.59565        -1.35232
O         51.90526        47.56700         0.00121
O         60.50283        53.01644         3.19658
O         65.77931        64.67569         1.62014
O         55.30742        52.67438         2.12514
O         63.07277        40.58239         2.99381
O         68.18825        63.43007         1.68623
O         65.76682        42.31011        -1.53290
O         55.18120        56.91853         1.58700
O         69.57184        62.37114        -1.40752
O         67.46296        34.27965        -0.21096
O         61.89732        50.52167         3.55002
O         41.63476        50.50884         1.16594
O         64.93062        67.51751        -2.03364
O         70.63171        68.14572        -0.67770
O         70.26085        57.12852        -1.66993
O         67.59209        44.91944         1.66643
O         63.26604        63.17123        -1.80999
O         70.87562        45.75022         0.30579
O         57.43201        58.34430         1.66984
O         60.99853        41.99741         3.87588
O         69.75818        33.05703        -0.53450
O         64.90593        50.48467         3.08112
O         47.43535        49.67111         2.15665
O         67.96772        47.64155        -1.88106
H         67.75032        48.49319        -2.31998
O         62.50760        65.93282        -2.43028
H         62.75903        65.03304        -2.74212
O         44.46926        48.62061         2.46487
H         45.04241        49.22648         2.98252
O         61.98692        37.41379         3.07883
H         61.79028        37.96104         3.86858
O         55.77175        49.42973        -0.70581
H         54.98202        49.19536        -1.25016
O         69.86816        50.02262         1.39619
H         69.77600        49.07992         1.67126
O         57.55160        46.42547         4.38746
H         56.79924        45.94261         4.81110
O         71.42610        64.10863        -1.68702
H         70.99953        63.35537        -2.16287
O         50.15724        50.57813         2.60509
H         49.29383        50.35858         3.02265
O         68.25989        50.72880        -1.84009
H         68.77051        51.44901        -2.26988
O         39.58991        49.10012         0.52784
H         40.31564        48.70408         1.07444
O         41.91032        47.84731         1.35985
H         42.44186        48.11063         2.14700
O         66.69063        54.31782        -1.07532
H         67.43951        54.14129        -1.69758
O         43.80208        55.12407         0.37385
H         43.67007        54.28854         0.87366
O         59.15987        50.69331        -0.09090
H         58.31225        50.54952        -0.56861
O         60.04947        61.13680        -2.27735
H         59.93435        60.16059        -2.38489
O         69.07454        47.05662         1.50823
H         69.22911        46.25447         2.05600
O         69.34016        44.03637        -3.31674
H         68.69177        43.30289        -3.40767
O         66.12554        66.77906        -2.40452
H         66.67174        67.46665        -2.85766
O         68.71592        41.64075         0.60368
H         68.46794        42.22906         1.34873
H         37.83448        48.57433        -1.21129
H         35.87004        49.58394        -2.38387
H         38.04898        53.26671        -2.85683
H         36.00068        51.94963        -3.19258
H         40.24519        48.14654        -2.36373
H         39.72714        54.12149        -2.88459
H         42.28795        47.05807        -1.63607
H         41.74197        55.45852        -2.55560
H         45.51385        44.70890        -0.20630
H         43.48103        45.95131        -0.73535
H         45.29299        57.59636        -2.62800
H         43.18121        56.67563        -1.91439
H         47.08962        43.57259         0.51528
H         46.96833        58.51507        -2.77912
H         49.14224        42.45542         1.16160
H         49.00706        59.77942        -2.62635
H         52.68701        40.44950         2.81159
H         50.62409        41.56356         2.15420
H         52.50745        62.19837        -1.79055
H         50.52495        60.85523        -2.18748
H         54.22837        39.60370         3.60029
H         54.08073        63.25043        -1.47654
H         56.29626        38.38505         3.54673
H         56.14060        64.52389        -1.30320
H         59.70822        36.16384         2.10544
H         57.75844        37.43283         2.74648
H         59.80740        66.79597        -0.85288
H         57.72055        65.54675        -0.77093
H         60.48773        35.80782         0.26091
H         61.36024        67.71597        -0.19686
H         61.80819        35.00387        -1.69720
H         63.38275        68.98739         0.18977
H         66.31470        31.98589        -2.39225
H         64.34036        33.37989        -2.80516
H         67.04368        71.29216         0.71617
H         65.04746        70.07254         0.04260
H         67.86908        30.87644        -2.09361
H         68.53987        72.16290         1.49357
H         72.01610        31.04675        -3.20739
H         69.91870        29.76648        -2.83541
H         72.13036        33.44708        -2.82036
H         72.19432        35.28298        -2.38535
H         72.17811        37.70303        -2.61871
H         72.12805        39.58328        -2.97522
H         72.21437        42.01865        -2.94190
H         72.11077        44.08724        -3.14107
H         72.57358        46.33123        -2.34782
H         73.00667        48.09460        -1.10710
H         73.09575        50.54121        -1.06121
H         73.14812        52.47912        -0.82901
H         73.17451        54.90624        -0.74999
H         73.26462        56.86915        -0.22013
H         73.24051        59.27107         0.09964
H         73.20018        61.20905         0.47582
H         73.22804        63.59655         0.41040
H         73.05240        65.47798         0.95895
H         72.94887        67.78884         1.69049
H         72.87745        69.76653         1.96408
H         72.65804        72.10637         2.74531
H         70.47729        73.30970         2.48198
