         268
 CSIRO Nanostructure Databank - Neutral Graphene Oxide Data Set
C        -10.90137         0.64546        -1.02065
C         -9.86526         1.44111        -0.30153
C         -8.68784         0.71903         0.28767
C         -7.43544         1.47770         0.88373
C         -6.12262         0.70656         0.57251
C         -4.87845         1.51567         0.23243
C         -3.59866         0.78485         0.14058
C         -2.32478         1.40487        -0.35321
C         -1.23071         0.81319         0.47488
C          0.00642         1.57941         0.73068
C          1.25768         0.82436         1.25454
C          2.55821         1.51844         0.78802
C          3.56088         0.69606        -0.01006
C          4.87150         1.46293        -0.31220
C          6.20184         0.81893         0.00417
C          7.39791         1.48072        -0.63334
C          8.75157         0.84360        -0.28803
C          9.85983         1.49224        -1.11283
C         10.97946         0.65808        -1.53116
C         -9.83243         2.93342        -0.35935
C         -8.70554         3.58492        -0.01887
C         -7.41405         2.98345         0.46936
C         -6.25399         3.57020        -0.35253
C         -4.93751         2.83714        -0.46906
C         -3.63953         3.52212        -0.86444
C         -2.28695         2.82378        -0.79189
C         -1.00944         3.60457        -0.58357
C          0.22518         2.83627        -0.09505
C          1.22612         3.68207         0.68158
C          2.55414         2.99373         0.60750
C          3.62152         3.74381        -0.11949
C          4.84811         2.95843        -0.50753
C          6.10651         3.73153        -0.78640
C          7.34546         2.92020        -1.05018
C          8.60568         3.70854        -1.38941
C          9.84758         2.83226        -1.35611
C         -8.37781         4.83133         0.77436
C         -7.48836         5.85678         0.03843
C         -6.28265         5.05691        -0.55390
C         -4.93822         5.74793        -0.66264
C         -3.62649         5.02213        -0.73896
C         -2.32931         5.78127        -0.99408
C         -1.04659         5.09926        -0.53525
C         -0.22115         5.84236         0.53236
C          1.15588         5.15570         0.88326
C          2.55623         5.83813         1.12843
C          3.68844         5.19495         0.25786
C          5.10327         5.77356         0.45829
C          6.18694         5.18376        -0.46034
C          7.55057         5.80435        -0.43064
C          8.65463         5.07869        -0.73041
C         -7.01643         7.01494         0.92474
C         -6.31179         8.04727         0.38537
C         -4.86737         7.17045        -1.05811
C         -3.72066         7.86471        -1.18797
C         -2.34516         7.27465        -1.12688
C         -1.21112         8.11125        -0.50936
C         -0.14894         7.37972         0.30990
C          1.08152         7.99501         0.99440
C          2.48946         7.36558         0.88979
C          3.75856         8.05599         0.43689
C          5.08775         7.30563         0.41487
C          6.33251         8.03903         0.02665
C          7.65356         7.31659        -0.28488
C         -5.71053         9.17286         1.11128
C         -4.60771         9.95188         0.87781
C         -3.57077         9.88099        -0.15476
C         -2.26448        10.24190        -0.03314
C         -1.20120         9.62648        -0.97116
C          0.11549        10.39384        -0.94630
C          1.28989        10.13444        -0.40983
C          2.52858        10.18090         0.05904
C          3.63477         9.28353        -0.47339
C          4.95888        10.00708        -0.64638
C          6.15956         9.42901        -0.48522
C        -10.85747        -0.69561        -1.11967
C         -9.58384        -1.47005        -0.86973
C         -8.63060        -0.79665         0.11079
C         -7.37209        -1.57930         0.31187
C         -6.09990        -0.78944         0.35183
C         -4.91787        -1.40234        -0.35628
C         -3.63300        -0.66785        -0.22367
C         -2.34721        -1.41412        -0.04828
C         -1.32647        -0.66408         0.76737
C         -0.09619        -1.39194         1.18514
C          1.16955        -0.66157         0.87569
C          2.39494        -1.46778         0.60122
C          3.68702        -0.67795         0.64277
C          5.00136        -1.37064         0.75141
C          6.29025        -0.60678         0.51217
C          7.64233        -1.40149         0.47542
C          8.57894        -0.69997        -0.55580
C          9.66983        -1.43936        -1.26840
C         10.88910        -0.68766        -1.63953
C         -9.70284        -2.95717        -0.61511
C         -8.58952        -3.72030        -0.32335
C         -7.27001        -3.08940         0.05611
C         -6.20480        -3.56024        -0.94445
C         -4.85378        -2.87956        -0.74079
C         -3.53060        -3.62472        -0.74570
C         -2.30748        -2.90541        -0.20055
C         -1.29489        -3.66501         0.61081
C         -0.08479        -2.90555         1.11691
C          1.22305        -3.61789         1.08418
C          2.39201        -2.92602         0.89474
C          3.72708        -3.58635         0.87354
C          4.92158        -2.81729         0.36664
C          6.13641        -3.51603        -0.13760
C          7.51364        -2.93315         0.17455
C          8.67267        -3.55505        -0.56590
C          9.74240        -2.90710        -1.06390
C         -8.54062        -5.14794        -0.35351
C         -7.31365        -5.86021        -0.50667
C         -6.09457        -5.10678        -0.96316
C         -4.76902        -5.85165        -1.08030
C         -3.39291        -5.13575        -1.10286
C         -2.23592        -5.89376        -0.38035
C         -1.29468        -5.18819         0.55851
C         -0.08675        -5.92116         1.09852
C          1.19275        -5.11186         1.00903
C          2.48802        -5.84136         0.93041
C          3.78111        -5.07047         0.92146
C          4.93344        -5.80384         0.30283
C          6.10856        -5.03925        -0.21271
C          7.45954        -5.73058        -0.34693
C          8.52536        -4.79244         0.28112
C         -7.24696        -7.23149        -0.28692
C         -6.06423        -8.05975        -0.57023
C         -4.75732        -7.36920        -0.96016
C         -3.45433        -8.13456        -0.78950
C         -2.20797        -7.39526        -0.36273
C         -1.15310        -8.17267         0.41301
C          0.02457        -7.44547         0.98633
C          1.37925        -8.15039         1.03175
C          2.57050        -7.25132         1.47857
C          3.93828        -7.85107         1.22128
C          5.02474        -7.24751         0.65552
C          6.28957        -7.92895         0.32417
C          7.41783        -7.19391         0.04696
C         -5.97050        -9.43536        -0.03051
C         -4.83478       -10.16184        -0.07472
C         -3.51870        -9.61365        -0.49264
C         -2.28595       -10.38504        -0.00200
C         -0.99750        -9.58774        -0.02697
C          0.22509       -10.15328        -0.13699
C          1.48576        -9.51600         0.35864
C          2.76399       -10.06678        -0.18974
C          3.97163        -9.90812         0.41015
C          5.31618       -10.24408        -0.05055
C          6.35593        -9.37547         0.08096
O         -4.04884        -2.98396        -1.94417
O         -3.96896         1.40879         1.39353
O          1.48263        -1.09075        -0.47564
O          0.88021         4.20342         1.97168
O         -8.33133        -1.39341         1.40101
O         -1.50636        -6.65564        -1.39878
O         -0.47980         4.44269        -1.68934
O         -6.66504         4.16569        -1.62663
O         -5.79071        -0.23833         1.65447
O          1.76325        -5.62670        -0.30066
O         -1.21069        -5.63604         1.95136
O          4.71889         2.04060        -1.63972
O          3.21298         4.79372        -1.04933
O          5.80239         4.77067        -1.79598
O         -4.47914         2.88901        -1.85793
O         -1.72204        -2.02682        -1.21320
O          7.19249         1.82185        -2.02405
O         -1.14825        -3.32610         2.01659
O          4.06054        -4.31222         2.12281
O         -7.51161         3.96493         1.61475
O         -5.56525        -5.50060        -2.25862
O          5.23111        -2.88984        -1.07623
O         -5.59912        -7.96394        -1.96514
O          3.09003         2.39206         1.82816
O          1.38009        -9.36741         1.82396
O          6.37713         0.53693         1.41337
O         -9.85398         1.01353         1.12152
O          5.10932        -5.54462        -1.14073
O         -1.01056        -8.04703         1.85314
O         -1.06866         1.64752         1.68132
O          0.87349         8.75591         1.91931
O          4.01337        -9.18627         1.63119
O          7.89146        -3.90320         1.29540
O          5.96078         7.89455         1.43310
O         -4.15009         5.47238         0.56152
O          3.32339         8.14447         1.80902
O          4.31251        -0.88799         1.93838
O         -6.93128        -3.71634         1.36073
O         -1.33050         7.99417         0.92691
O         -1.05224        -0.92613         2.16774
O          8.38957        -1.01007        -1.92890
O         -3.91647         9.24764        -1.37878
O          9.05049         1.02604         1.05212
O         -6.05684         7.94084        -1.01705
O         -3.31180        -9.12818        -1.84861
O         -2.11083         6.41870        -2.28911
O         -2.14951         1.71137        -1.74536
O         -4.37436        -0.66265        -1.49093
O          1.23610         0.82929         2.67814
H          1.61708         1.68182         2.98853
O          8.25659        -1.29578         1.74344
H          8.48729        -0.32871         1.88098
O         -2.49161       -10.77316         1.36783
H         -2.00646       -10.14984         1.95116
O         -8.84170        -1.35466        -2.13595
H         -9.28494        -1.90637        -2.81448
O          7.78377        -5.76662        -1.76190
H          6.95312        -5.98748        -2.24000
O         -6.68799        -3.14797        -2.22941
H         -5.98262        -3.35350        -2.88358
O          8.19609         7.84331        -1.50559
H          7.95593         7.24631        -2.24454
O         -8.28060         6.37554        -1.03595
H         -7.73724         7.04453        -1.51209
O          8.48340         4.04602        -2.80654
H          8.05625         3.27479        -3.24386
O          5.52264         5.33947         1.76392
H          4.88389         5.68892         2.42916
O          2.93041         5.61473         2.48652
H          2.35845         6.14968         3.07488
O          0.91262         2.36752        -1.27535
H          0.75359         3.00971        -2.00490
O         -1.56596         9.68043        -2.34704
H         -2.54572         9.60903        -2.43332
O         -7.59469         1.48125         2.29466
H         -7.58514         0.54881         2.60205
O         -1.06649         5.65162         1.67650
H         -0.80764         6.27177         2.38922
O          2.98376         0.42884        -1.29233
H          3.21719         1.16567        -1.90518
O          2.41293        -7.11782         2.90808
H          2.33917        -8.02757         3.27388
O         -2.97888        -5.15797        -2.47144
H         -3.65491        -4.67445        -2.99575
O          3.25192         8.74493        -1.75701
H          3.19000         9.48095        -2.40055
O         -5.63137        -3.19413         1.75268
H         -5.85727        -2.57472         2.49278
H         11.75347        -1.27107        -1.99003
H         11.90617         1.16505        -1.84256
H         10.71443         3.26217        -1.88731
H          9.62684         5.59694        -0.75831
H          8.37555         7.57495         0.53444
H          7.07498         9.99671        -0.71054
H          4.90700        11.04318        -1.01675
H          2.71862        10.67881         1.02660
H          0.07597        11.27053        -1.62328
H         -1.91097        10.71356         0.89509
H         -4.36680        10.66556         1.68352
H         -6.21217         9.36938         2.07425
H         -7.24020         6.99453         2.00133
H         -9.20577         5.30378         1.35212
H        -10.78601         3.46922        -0.48341
H        -11.80428         1.18606        -1.34513
H        -11.69638        -1.23588        -1.58624
H        -10.63997        -3.46490        -0.89635
H         -9.47897        -5.72339        -0.32004
H         -8.13324        -7.73931         0.12604
H         -6.88605        -9.87879         0.38970
H         -4.82956       -11.17681         0.34911
H         -2.18929       -11.32004        -0.61352
H          0.29948       -11.21266        -0.43235
H          2.69739       -10.60608        -1.14491
H          5.50468       -11.24294        -0.47389
H          7.34943        -9.73429        -0.23437
H          8.33168        -7.75218        -0.21694
H          9.43932        -5.30179         0.66162
H         10.67620        -3.43726        -1.30134
