         424
 CSIRO Nanostructure Databank - Neutral Graphene Oxide Data Set
C          1.41138         3.40791        -0.15550
C          0.17631         4.06488        -0.26689
C          1.28600         6.21993         0.00426
C          0.11596         5.44687        -0.19649
C          1.23704         7.66610         0.06453
C          0.02127         8.38029        -0.08811
C          1.17506        10.52274         0.12396
C         -0.01099         9.75815        -0.04954
C          1.14718        11.97353         0.08884
C         -0.06513        12.69138        -0.02641
C          1.11759        14.82952        -0.03920
C         -0.07935        14.07287        -0.09339
C          1.09457        16.27019        -0.08469
C         -0.06675        17.00441        -0.33108
C          1.12107        19.16024        -0.23502
C         -0.07416        18.40463        -0.34658
C          1.11838        20.61215        -0.33048
C         -0.06832        21.36194        -0.42217
C          1.15255        23.47601        -0.42948
C         -0.04910        22.75710        -0.48731
C          1.21119        24.93252        -0.61271
C          0.03128        25.68997        -0.99964
C          1.23680        27.81557        -0.79020
C          0.03323        27.05565        -1.01338
C          1.25686        29.19858        -0.68123
C          0.03744        29.99674        -0.61584
C          1.35734        32.06252        -0.99693
C          0.06793        31.34429        -0.66987
C          1.33816        33.54290        -0.67045
C          0.20930        34.30403        -1.12185
C          1.24365        36.39846        -0.44716
C          0.17290        35.68605        -1.01554
C          1.30733        37.81542        -0.50157
C          3.89848         3.41562         0.07097
C          2.58034         4.13695         0.04887
C          3.73979         6.31253         0.42178
C          2.53681         5.55242         0.14102
C          3.66691         7.71140         0.49627
C          2.43284         8.40275         0.29025
C          3.63474        10.58809         0.39550
C          2.39921         9.83808         0.30429
C          3.61511        12.00315         0.24162
C          2.36873        12.70889         0.13360
C          3.61059        14.86151         0.05280
C          2.35768        14.13130         0.07110
C          3.61271        16.28268         0.05622
C          2.33114        17.01880         0.34056
C          3.58308        19.16557        -0.10896
C          2.34727        18.47158        -0.06828
C          3.59251        20.59804        -0.20381
C          2.36111        21.31481        -0.27951
C          3.61213        23.43449        -0.15276
C          2.37370        22.74465        -0.28959
C          3.57105        24.90112         0.18136
C          2.39336        25.60691        -0.42877
C          3.71175        27.75887        -0.25195
C          2.53455        27.04477        -0.86632
C          3.70991        29.16250        -0.17710
C          2.51359        29.90562        -0.46848
C          3.69196        31.98449         0.03837
C          2.53614        31.30496        -0.42708
C          3.61762        33.44449         0.43276
C          2.39995        34.17694        -0.07459
C          3.67583        36.35861         0.09900
C          2.34595        35.65127         0.25464
C          3.70713        37.74723        -0.01481
C          2.48421        38.48249        -0.23998
C          6.34830         3.70219         0.29953
C          5.02118         4.14063         0.84156
C          6.15010         6.37840         1.01805
C          4.96922         5.64442         0.76601
C          6.15310         7.78045         0.93573
C          4.83344         8.48955         1.04782
C          6.09109        10.62104         0.54814
C          4.85971         9.92383         0.61175
C          6.06558        12.00459         0.23648
C          4.84820        12.71151         0.15950
C          6.07146        14.87462        -0.04410
C          4.83679        14.15193         0.02235
C          6.06167        16.30129        -0.08601
C          4.82102        17.00600        -0.03182
C          6.05095        19.15966        -0.15098
C          4.81955        18.45000        -0.07481
C          6.05951        20.58962        -0.18029
C          4.82742        21.30362        -0.18824
C          6.08343        23.44969        -0.03394
C          4.82672        22.73896        -0.13482
C          6.08826        24.88655         0.07306
C          4.88569        25.61165         0.00578
C          6.13276        27.73331         0.26442
C          4.89874        27.03163         0.01956
C          6.12869        29.15152         0.35482
C          4.91251        29.86668         0.16992
C          6.08484        32.01554         0.82125
C          4.86827        31.28347         0.30969
C          6.15460        33.43846         0.33291
C          4.89269        34.17546        -0.05221
C          6.21522        36.33228        -0.04039
C          4.94733        35.63064         0.44098
C          6.20389        37.78832         0.00283
C          4.95368        38.44048         0.05685
C          8.76144         3.68750         0.66503
C          7.52343         4.31181         0.74618
C          8.66289         6.45552         1.43529
C          7.38670         5.63368         1.49161
C          8.62148         7.83007         1.24133
C          7.36725         8.53945         0.99856
C          8.58276        10.76096         1.05046
C          7.34196         9.92742         0.79869
C          8.57988        12.08234         0.34470
C          7.32559        12.68337        -0.20828
C          8.52842        14.88476        -0.16305
C          7.30893        14.18314        -0.08351
C          8.53263        16.31825        -0.18935
C          7.29515        17.01895        -0.15271
C          8.52292        19.15552        -0.23858
C          7.28884        18.44505        -0.17893
C          8.50956        20.57822        -0.25967
C          7.30351        21.30058        -0.20559
C          8.53101        23.47321         0.03931
C          7.30015        22.74901        -0.10537
C          8.54144        24.83879         0.29884
C          7.32931        25.58594         0.25664
C          8.60124        27.71053         0.53794
C          7.34478        27.00132         0.38867
C          8.60712        29.13875         0.58773
C          7.37339        29.86620         0.53942
C          8.60958        31.98793         0.59416
C          7.38014        31.26905         0.61553
C          8.61914        33.40663         0.41239
C          7.34903        34.10486         0.24500
C          8.63956        36.06342        -0.45583
C          7.36564        35.52810        -0.12151
C          8.65708        38.18507        -0.20186
C          7.37277        38.60229         0.17779
C         11.18565         3.53739         1.35516
C          9.86425         4.22309         1.53921
C         11.11078         6.37053         1.14718
C          9.91614         5.73424         1.40732
C         11.20268         7.81700         1.32099
C          9.87260         8.60504         1.33820
C         11.06292        10.67804         0.53650
C          9.89164        10.01642         0.90603
C         11.01299        12.04354         0.12387
C          9.77567        12.75093         0.09115
C         10.98899        14.87755        -0.35876
C          9.77222        14.17252        -0.21350
C         11.01612        16.30875        -0.32961
C          9.76628        17.03159        -0.23407
C         11.02063        19.16340        -0.17086
C          9.76362        18.44333        -0.25489
C         11.04066        20.52667        -0.15307
C          9.79641        21.28641        -0.37383
C         11.08720        23.45653         0.12873
C          9.81022        22.77415        -0.18558
C         11.08227        24.83566         0.35560
C          9.80206        25.51178         0.77833
C         11.05686        27.68854         0.67447
C          9.81591        27.00282         0.58382
C         11.05306        29.10063         0.80943
C          9.84327        29.83567         0.74132
C         11.06750        32.00246         0.66653
C          9.85152        31.28116         0.69594
C         11.08759        33.39821         0.41124
C          9.84885        34.09314         0.27983
C         11.08143        36.25666        -0.02626
C          9.87043        35.49552        -0.06324
C         11.09228        37.71247         0.08238
C          9.92296        38.53030         0.27357
C         13.60793         3.52316         1.08333
C         12.33867         4.18503         1.01947
C         13.58335         6.33595         0.51745
C         12.26048         5.61304         0.51771
C         13.62752         7.76666         0.47071
C         12.46905         8.53548         0.96241
C         13.55662        10.56983        -0.12289
C         12.39913        10.01335         0.59622
C         13.46580        11.94131        -0.66951
C         12.16960        12.70258        -0.49923
C         13.42266        14.85009        -0.76103
C         12.22081        14.17299        -0.52395
C         13.46270        16.29144        -0.64338
C         12.25029        16.97959        -0.36768
C         13.54732        19.15915        -0.29039
C         12.29865        18.40422         0.11652
C         13.55501        20.54378        -0.16455
C         12.29334        21.24083         0.28031
C         13.52977        23.41890         0.11496
C         12.30077        22.73374         0.06800
C         13.53917        24.83569         0.27127
C         12.31074        25.54472         0.43686
C         13.55387        27.65812         0.68703
C         12.30837        26.96438         0.63089
C         13.58601        29.07244         0.84814
C         12.32704        29.79171         1.05338
C         13.60089        31.99299         0.61164
C         12.33551        31.31907         0.94710
C         13.57306        33.41226         0.37146
C         12.32659        34.11685         0.28531
C         13.56937        36.23593         0.04737
C         12.31888        35.53786         0.11159
C         13.57186        37.68737         0.11795
C         12.32688        38.36042         0.23134
C         16.07084         3.56729         1.01251
C         14.80228         4.19519         0.82903
C         16.00708         6.27230         0.17594
C         14.77784         5.60096         0.46200
C         15.89745         7.58969        -0.54971
C         14.76955         8.44119         0.01952
C         15.83769        10.49452        -1.10665
C         14.72654         9.84219        -0.27620
C         15.99172        11.97933        -0.67607
C         14.69607        12.74109        -0.81401
C         15.86514        14.88400        -1.43897
C         14.65662        14.10514        -0.94729
C         16.00346        16.27093        -0.79900
C         14.68972        17.01619        -0.75390
C         15.99112        19.12266        -0.78750
C         14.74679        18.41866        -0.60667
C         16.06246        20.50750        -0.17169
C         14.77026        21.29367        -0.20704
C         16.02013        23.42190         0.01746
C         14.77769        22.68238        -0.00985
C         16.02952        24.80841         0.22873
C         14.78490        25.54103         0.37327
C         16.06078        27.64379         0.92499
C         14.78036        26.92289         0.59225
C         16.01139        29.10940         0.58795
C         14.81533        29.80657         0.70950
C         16.04529        31.97353         0.45985
C         14.79335        31.26713         0.57668
C         16.05057        33.40448         0.35829
C         14.79795        34.11560         0.23827
C         16.04796        36.24768        -0.21386
C         14.78577        35.52498         0.04459
C         16.04263        37.76821        -0.06084
C         14.76392        38.40147         0.21875
C         18.52729         3.68150         1.20438
C         17.25578         4.28519         0.89286
C         18.47054         6.40318         0.34261
C         17.22869         5.65918         0.43749
C         18.47231         7.75205        -0.09073
C         17.23595         8.32587        -0.67389
C         18.44016        10.59306        -0.77861
C         17.20424         9.79232        -0.98572
C         18.43166        11.96263        -1.10207
C         17.12757        12.63048        -1.48439
C         18.32951        14.82653        -1.47125
C         17.15929        14.12665        -1.29198
C         18.27855        16.26002        -1.77597
C         17.15872        17.05361        -1.43506
C         18.30053        19.35948        -1.64192
C         17.13519        18.49885        -1.33446
C         18.39108        20.70404        -1.12758
C         17.25068        21.33816        -0.55688
C         18.47635        23.46166        -0.36653
C         17.25109        22.71657        -0.29061
C         18.50504        24.85228        -0.04360
C         17.27666        25.54904         0.23182
C         18.53073        27.65638         0.40596
C         17.29810        26.93202         0.44179
C         18.53724        29.08300         0.45939
C         17.25630        29.80256         0.11657
C         18.49464        31.96243         0.54189
C         17.26633        31.27151         0.43715
C         18.48845        33.39371         0.59385
C         17.27461        34.09245         0.37600
C         18.46971        36.30231         0.60341
C         17.38963        35.51967        -0.09827
C         18.46705        37.72117         0.59096
C         17.29854        38.44181         0.25682
C         19.68297         4.40390         1.15201
C         20.87034         6.55156         0.74690
C         19.68221         5.78745         0.74967
C         20.85238         7.88575         0.37709
C         19.65994         8.52053        -0.05519
C         20.83179        10.71810        -0.39737
C         19.64991         9.94275        -0.42199
C         20.82727        12.06112        -0.74576
C         19.62688        12.70893        -1.10621
C         20.70540        14.72173        -2.08348
C         19.59627        14.10768        -1.53260
C         20.57553        16.00233        -2.67960
C         19.39592        16.70811        -2.55081
C         20.50561        19.74840        -2.71162
C         19.33200        18.99133        -2.51757
C         20.66541        20.94541        -2.04794
C         19.58964        21.46751        -1.29032
C         20.90119        23.50842        -0.67712
C         19.66758        22.80493        -0.76207
C         20.94150        24.81961        -0.26468
C         19.74567        25.53975         0.01461
C         20.97298        27.68522         0.42626
C         19.76567        26.95228         0.29449
C         20.96070        29.05325         0.59795
C         19.74421        29.78951         0.55122
C         20.91863        31.99779         0.70451
C         19.74592        31.25692         0.59153
C         20.89628        33.40071         0.86314
C         19.70688        34.10814         0.82672
C         20.87572        36.33608         1.31000
C         19.59597        35.55612         1.26448
C         20.85403        37.71024         1.22553
C         19.67049        38.41674         0.94643
O         17.44220         8.80600        -2.04582
O          8.66687        37.20500        -1.23703
O         10.62655         8.30850         2.56448
O         15.38363        10.42856        -2.43747
O         16.00805        37.07126        -1.41543
O         12.79352         9.56107         1.94395
O         12.53197        12.06997        -1.79360
O         12.33726        30.64801         2.26015
O         19.23839        17.85908        -3.32983
O          9.86495        22.18945        -1.55025
O          4.93759         3.75471         2.26451
H          4.99288         2.77314         2.28135
O          3.54727        33.47238         1.88190
H          4.37113        33.04401         2.23959
O          4.57388         8.54795         2.51468
H          4.66264         7.63245         2.85853
O          1.49487        31.99932        -2.45610
H          1.58068        31.05401        -2.70308
O          2.02858        35.72013         1.70483
H          2.59884        35.03052         2.13440
O         16.35550        11.97986         0.72429
H         16.40452        12.90931         1.03452
O          8.52096        11.08710         2.50306
H          8.78342        10.28021         2.99865
O         15.65923        15.05714        -2.86470
H         15.87045        14.18505        -3.28254
O         16.84667        12.48287        -2.89963
H         16.30099        11.63351        -3.01523
O         12.28614        21.09647         1.76682
H         13.10321        21.52661         2.10125
O         12.38401        18.29713         1.58049
H         12.33921        19.22402         1.93004
O         19.14363        35.45141         2.69005
H         19.20537        36.35369         3.07263
O         16.16000        27.58968         2.40918
H         15.37899        28.06602         2.76586
O         16.26314        20.21380         1.27913
H         16.50222        21.06122         1.71334
O          9.48226         3.90688         2.91596
H          8.65235         4.41354         3.12581
O          4.80091        34.18375        -1.49637
H          5.61031        34.60697        -1.85325
O          2.24585        17.05705         1.83111
H          1.41054        17.52141         2.05482
O          3.74981         2.09047         0.60400
H          3.11299         2.13160         1.34685
O         15.44558         7.26239        -1.89491
H         15.66085         8.05649        -2.44756
O         17.19070        29.73610        -1.36771
H         17.94254        30.26341        -1.71393
O         17.93316        35.40552        -1.46059
H         17.53800        36.15917        -1.96657
O         11.89852         5.53221        -0.91132
H         12.70849         5.29064        -1.41059
O          5.06405        35.59638         1.90213
H          4.85231        36.49539         2.23186
O          7.14023         5.31078         2.89916
H          6.33465         4.72625         2.91476
O          7.37775        12.41125        -1.67381
H          8.18246        12.85275        -2.02282
O          5.90456        32.11773         2.29939
H          6.67903        32.60707         2.65253
O         16.36384        16.02922         0.59920
H         16.36247        16.89598         1.05986
O          9.76098        25.32584         2.25053
H         10.49975        25.84821         2.63051
O          2.86515        26.96897        -2.31094
H          2.10830        26.52744        -2.75325
O          3.32824        24.95250         1.64539
H          4.04851        24.44577         2.07820
H          1.46264         2.31318        -0.23911
H         -0.74088         3.48113        -0.42534
H         -0.86004         5.93835        -0.30040
H         -0.92077         7.83929        -0.24676
H         -0.97731        10.26185        -0.18230
H         -1.02454        12.15859        -0.05655
H         -1.04828        14.58421        -0.16911
H         -1.01211        16.48593        -0.54455
H         -1.02967        18.91451        -0.52618
H         -1.04203        20.85460        -0.45054
H         -1.00745        23.28712        -0.57377
H         -0.90849        25.15721        -1.19855
H         -0.91055        27.58744        -1.20104
H         -0.92171        29.48038        -0.46538
H         -0.86695        31.91828        -0.58880
H         -0.61743        33.78158        -1.62283
H         -0.67263        36.24315        -1.44665
H          0.41781        38.37605        -0.82725
H          4.24168         3.29711        -0.99403
H          2.53011        39.57913        -0.30479
H          6.40378         2.80437        -0.33561
H          4.93717        39.54000         0.08947
H          8.84234         2.68841         0.20948
H          7.24449        39.57356         0.67801
H         11.22879         2.47897         1.65697
H         10.04630        39.46255         0.84432
H         13.63713         2.48149         1.43795
H         12.33704        39.45150         0.37052
H         16.10229         2.50747         1.30664
H         14.74075        39.47018         0.47783
H         18.54293         2.62801         1.52031
H         17.29237        39.53476         0.37457
H         20.64215         3.93874         1.42329
H         21.81413         6.08113         1.05845
H         21.79502         8.44753         0.41067
H         21.79011        10.25930        -0.12046
H         21.77034        12.62535        -0.72543
H         21.65588        14.17984        -2.17917
H         21.38962        16.41140        -3.29170
H         21.27620        19.36816        -3.39415
H         21.58396        21.52839        -2.19066
H         21.84294        22.99792        -0.91877
H         21.91438        25.32417        -0.19795
H         21.93990        27.16529         0.40044
H         21.91820        29.57857         0.71084
H         21.89443        31.49521         0.73809
H         21.85001        33.91494         1.04351
H         21.80667        35.82540         1.59058
H         21.78533        38.27565         1.37785
H         19.67805        39.51468         0.91743
