         294
 CSIRO Nanostructure Databank - Neutral Graphene Oxide Data Set
C          1.15683         1.80947         0.62248
C          1.07061         3.20556         0.69425
C          2.37723         1.15800         0.54670
C          2.21465         4.02183         0.25201
C          1.01226         6.38752         0.45247
C          1.06661         7.73050         0.47081
C          2.17687         5.53162         0.10793
C          2.35516         8.51908         0.42143
C          1.12340        10.77416         0.13910
C          1.16196        12.15662         0.03533
C          2.27260         9.97182         0.02377
C          2.45661        12.90769        -0.18447
C          1.37509        15.14461         0.30080
C          1.41857        16.51515         0.71678
C          2.46965        14.32903         0.35756
C          2.62749        17.13614         1.00284
C          2.71087        18.54240         1.30918
C          3.59244         1.95412         0.93414
C          3.57755         3.31057         0.15756
C          4.92257         1.25580         0.72028
C          4.76847         4.16992         0.60095
C          3.47855         6.25683        -0.15563
C          3.48913         7.74586        -0.25959
C          4.78833         5.68954         0.39211
C          4.82463         8.41325        -0.35416
C          3.55853        10.67227        -0.23102
C          3.62040        12.06531         0.39466
C          4.80308         9.89373        -0.51089
C          4.93690        12.80546         0.24842
C          3.74619        14.85776         0.99688
C          3.85599        16.37074         0.94874
C          4.98854        14.12534         0.53929
C          5.06850        17.01974         1.02363
C          3.91570        19.15450         1.50123
C          5.15221        18.43291         1.33089
C          6.09640         1.93682         0.59581
C          6.06298         3.43863         0.69582
C          7.39376         1.25894         0.49062
C          7.38036         4.19362         0.59182
C          6.01957         6.18194        -0.40923
C          5.99018         7.71704        -0.44079
C          7.31561         5.63250         0.15669
C          7.26397         8.41304        -0.80389
C          6.11729        10.59365        -0.35252
C          6.18137        12.03808        -0.01882
C          7.31128         9.91071        -0.94461
C          7.47459        12.74986        -0.20869
C          6.23693        14.92818         0.21121
C          6.35508        16.23590         1.00361
C          7.52352        14.10974         0.34129
C          7.55285        17.07645         0.42985
C          6.38595        19.06180         1.49205
C          7.61824        18.44615         1.09189
C          8.52483         1.91716         0.08074
C          8.21306         3.30063        -0.41976
C          9.85763         1.32429        -0.04341
C         10.16447         4.21623         0.38046
C          8.59420         6.25265        -0.40034
C          8.54400         7.79499        -0.25148
C          9.92859         5.73801         0.27343
C          9.78210         8.46857        -0.90357
C          8.63122        10.70534        -1.09654
C          8.63581        12.09906        -0.51364
C          9.87615         9.97334        -0.52179
C          9.90730        12.81489        -0.65936
C          8.87857        14.83855         0.34710
C          8.90674        16.32275         0.71030
C          9.96889        14.20123        -0.39974
C         10.02021        17.07791         0.04959
C          8.81864        19.10495         1.03770
C          9.90266        18.59418         0.11577
C         11.02013         1.97294        -0.35685
C         11.03099         3.47673        -0.61464
C         12.35707         1.21208        -0.27660
C         12.39809         4.13899        -0.21917
C         11.14539         6.38743        -0.39133
C         11.09079         7.75405        -0.71201
C         12.32259         5.62466        -0.55131
C         12.24501         8.45669        -1.41086
C         11.12512        10.68126        -1.04230
C         11.07782        12.11425        -1.09167
C         12.28144         9.97163        -1.29594
C         12.24881        12.83262        -1.74007
C         10.93551        15.07715        -1.18104
C         11.04967        16.48628        -0.59338
C         12.26995        14.37944        -1.55794
C         12.16006        17.35945        -1.12048
C         11.24662        19.23805         0.25659
C         12.32818        18.68046        -0.36995
C         13.56614         1.93324        -0.89369
C         13.54595         3.42069        -0.90590
C         14.91993         1.27073        -0.87895
C         14.89677         4.12731        -0.88650
C         13.59519         6.32646        -0.82105
C         13.58057         7.81118        -1.03114
C         14.81511         5.58103        -0.32409
C         14.68093         8.73615        -0.59932
C         13.56303        10.65137        -1.78446
C         13.57990        12.14512        -1.44357
C         14.78420         9.95525        -1.20054
C         14.83421        12.90623        -1.85450
C         13.56923        15.14993        -1.55781
C         13.49517        16.61327        -1.20457
C         14.84686        14.31719        -1.19225
C         14.52049        17.45044        -1.54201
C         13.59845        19.34818        -0.36348
C         14.72422        18.76550        -0.95612
C         16.05792         1.93728        -0.51031
C         15.89590         3.35859        -0.00163
C         17.36060         1.32218        -0.29887
C         17.17372         4.14655         0.17334
C         16.15972         6.11688        -0.81570
C         15.77359         8.30344         0.29460
C         17.26548         5.51251        -0.01475
C         17.08937         8.59906         0.00898
C         16.11641        10.60903        -1.29574
C         16.15604        12.10262        -1.56813
C         17.33531         9.83394        -0.78562
C         17.43122        12.82787        -1.19147
C         16.21257        14.98352        -1.27329
C         16.41655        16.36148        -1.53794
C         17.37842        14.26315        -0.88589
C         17.37828        17.13598        -0.91331
C         16.04031        19.29133        -0.79007
C         17.26705        18.57131        -0.73576
C         18.41808         1.97436         0.28640
C         18.31201         3.40339         0.79264
C         19.65778         1.30012         0.65650
C         19.60182         4.19537         0.62467
C         18.36117         6.32520         0.43382
C         18.23800         7.81005         0.56883
C         19.56632         5.67578         0.79935
C         19.51260         8.54000         0.80723
C         18.59740        10.59969        -0.40448
C         18.65636        12.08180        -0.60435
C         19.56820        10.00847         0.54442
C         19.64812        12.85547         0.14784
C         18.54723        14.94052        -0.48852
C         18.42701        16.40808        -0.11498
C         19.70708        14.23699        -0.03387
C         19.77385        17.11973        -0.26749
C         18.42178        19.25512        -0.25241
C         19.64917        18.61206         0.00593
C         20.77052         1.97284         1.05174
C         20.88196         3.44351         0.88317
C         21.99968         4.23347         1.41180
C         20.76297         6.35468         1.10694
C         20.86279         7.85581         0.89110
C         21.93628         5.60530         1.44265
C         21.66296         8.64286         1.92260
C         20.52066        10.71667         1.21543
C         20.44323        12.22923         1.28061
C         21.48100         9.97738         2.04084
C         21.75371        12.94222         1.50097
C         21.03167        14.96230         0.18583
C         20.87329        16.44329         0.59285
C         21.96055        14.20404         1.10728
C         22.14560        17.25047         0.49472
C         20.81350        19.30169         0.34299
C         22.06442        18.61140         0.46289
O          7.11409         9.05572        -2.10830
O         18.58054        12.49115        -2.00532
O          9.95223         6.15721         1.65895
O          8.36249        14.11038         1.51961
O         16.35315        11.14585        -2.63874
O          5.32858         3.84515         1.92531
O         18.64040         8.23418         1.95172
O         15.52189        16.98292        -2.39485
O          3.34045         6.90916        -1.45278
O         20.44592         3.81796        -0.49255
O          1.87020         4.66007        -1.04357
O          7.41417        17.29349        -0.94805
O         12.85853        14.91620        -2.80171
O         16.36491         6.66446        -1.88187
O          6.37525        10.97870         1.03477
O         13.23645         2.69054        -2.12619
O          4.01660        10.46345        -1.61006
O         13.91743         6.88497        -2.15301
O          8.24926         3.54352        -1.60443
O         18.48427         9.83530        -1.65674
O          8.39316         8.12667         1.14686
H          9.00214         7.54398         1.67378
O          5.89635         5.65225        -1.74820
H          6.79642         5.68473        -2.16291
O         19.63571        12.49627         2.48264
H         19.69914        13.45609         2.67599
O         13.59535        10.53147        -3.22915
H         12.82410        11.05878        -3.56130
O         12.67518         3.90996         1.19164
H         11.85405         4.05159         1.72686
O          3.37036        11.82627         1.80041
H          3.51765        12.68322         2.28021
O          8.62897         5.95702        -1.80921
H          8.92937         6.77116        -2.29851
O         12.04712         8.28802        -2.85839
H         12.69911         7.59830        -3.15096
O          9.50035         8.39223        -2.33863
H         10.36407         8.44637        -2.83006
O         11.95247        12.64060        -3.17822
H         12.57727        13.25723        -3.64201
O          2.79087         8.61286         1.83058
H          3.09215         9.53211         2.01795
O          6.62826        15.88532         2.37680
H          6.50136        16.68684         2.92645
O          9.20083        16.42904         2.12348
H          8.70219        15.69792         2.56425
O         11.83193        17.69538        -2.49039
H         11.35981        16.92273        -2.88015
O         20.11912        16.98963        -1.65927
H         21.06206        17.23662        -1.76516
O         15.44974         4.13318        -2.20336
H         15.03690         4.85405        -2.72631
O          6.05624        15.17849        -1.19399
H          6.53760        16.03217        -1.42930
O          8.83132        10.92734        -2.50804
H          8.52384        10.10981        -2.96904
O          3.61389        14.52172         2.43752
H          2.84012        15.02073         2.77797
O          3.81525         2.98283        -1.22109
H          3.33762         3.65039        -1.77008
O          9.94099        10.16405         0.89713
H          9.18096         9.67960         1.31042
O          3.40629         2.18151         2.35586
H          4.19917         2.66685         2.68629
O         21.69178        14.97295        -1.10944
H         21.56089        14.09669        -1.52945
O          4.86464         6.30569         1.69822
H          5.34121         5.68805         2.29857
O         12.65458         0.99585         1.11158
H         12.85967         1.87570         1.50670
O         14.70052        14.03348         0.23060
H         14.85382        14.85858         0.73867
O         21.51146         8.03295        -0.39884
H         22.28884         7.43825        -0.43980
O         14.80206        13.12728        -3.27567
H         14.97579        12.24504        -3.68613
O         10.74865         3.79298        -1.96593
H         11.42654         3.34575        -2.52462
O          9.42299        18.98984        -1.20824
H          8.59965        18.43048        -1.37093
O         10.24048        15.28199        -2.45579
H         10.36642        14.47381        -3.00202
O         15.34938         3.14464         1.33647
H         16.10929         3.16421         1.96682
O          7.93348         4.12019         1.92931
H          7.17186         4.15995         2.55050
O         10.15852         3.72839         1.52132
H          9.61876         5.37656         2.17635
O          2.68474        12.98851        -1.61598
H          2.03832        13.61593        -2.00028
O         20.48893        16.44296         2.00249
H         20.60794        17.35700         2.33939
O         15.42200         7.71557         1.44903
H         16.22140         7.48123         1.96469
O         18.03611         3.30545         2.23657
H         18.64030         2.62742         2.60927
O         17.96072        16.45541         1.26362
H         18.74018        16.25487         1.84230
O         14.81552         5.52430         1.10086
H         14.08957         4.91637         1.39571
H          0.22397         1.22454         0.61479
H          0.08588         3.68842         0.77001
H          2.43409         0.06809         0.41520
H          0.03851         5.88515         0.55886
H          0.14004         8.28883         0.67426
H          0.14729        10.29367         0.30864
H          0.21360        12.71346         0.08131
H          0.42043        14.76153        -0.09252
H          0.48899        17.10118         0.71548
H          1.77594        19.11567         1.39357
H          4.93544         0.15406         0.71248
H          3.96189        20.22540         1.74816
H          7.42704         0.18412         0.73223
H          6.40427        20.11996         1.80052
H          9.91618         0.24552         0.18305
H          8.89877        20.13863         1.41468
H         12.23448         0.20153        -0.74625
H         11.33709        20.21656         0.75563
H         14.96591         0.19788        -1.12926
H         13.69322        20.29790         0.18594
H         17.48619         0.26655        -0.59157
H         16.09504        20.33557        -0.43756
H         19.66305         0.19883         0.65510
H         18.35277        20.34077        -0.07991
H         21.66147         1.41710         1.38129
H         22.89605         3.71280         1.77954
H         22.82643         6.16222         1.77448
H         22.42393         8.13468         2.53432
H         22.08918        10.54164         2.76360
H         22.51351        12.43988         2.11910
H         22.91657        14.69454         1.34924
H         23.12028        16.74879         0.57537
H         20.79680        20.39758         0.43104
H         22.98444        19.21282         0.51223
