         621
 CSIRO Nanostructure Databank - Neutral Graphene Oxide Data Set
C          5.89520        31.79665        -0.36194
C          5.88376        33.16493        -0.41216
C          8.38162        27.53870        -0.12040
C          8.36123        28.93009        -0.06243
C          7.13691        29.65881        -0.17867
C          8.33698        31.78995         0.02986
C          7.11341        31.05057        -0.17083
C          8.29851        33.18436        -0.01897
C          7.09672        33.92637        -0.27113
C          8.30989        36.09694        -0.37786
C          7.10803        35.33721        -0.35375
C          8.38840        37.48180        -0.54187
C         10.89908        23.44621         0.76065
C         10.80206        24.55018        -0.33636
C          9.58120        25.41275        -0.15948
C         10.87044        27.52305        -0.02141
C          9.60604        26.78864        -0.10773
C         10.84046        28.95079         0.14113
C          9.60491        29.66075         0.10599
C         10.81567        31.76755         0.43579
C          9.58831        31.07262         0.20704
C         10.79784        33.24277         0.56396
C          9.51757        33.95548         0.27215
C         10.88986        36.01305        -0.39454
C          9.57363        35.32254        -0.32069
C         10.89677        37.48627        -0.55263
C          9.62991        38.19508        -0.65337
C         10.87216        40.29957        -1.06958
C          9.66151        39.58805        -0.83757
C         10.93353        41.68700        -1.20619
C         13.24628        18.98760         0.74195
C         13.20613        20.29937         0.32548
C         12.07421        21.18060         0.57424
C         13.34872        23.24836         0.23672
C         12.11614        22.56352         0.53982
C         13.39177        24.65293        -0.26819
C         12.09448        25.38695        -0.39823
C         13.32926        27.54620         0.10463
C         12.08717        26.84397        -0.08771
C         13.31559        28.96098         0.27912
C         12.06243        29.66417         0.29216
C         13.28730        31.78167         0.84666
C         12.03248        31.07456         0.47323
C         13.28654        33.29862         0.91038
C         12.07270        34.00617         0.45405
C         13.34552        36.16906         0.27912
C         12.10684        35.31655         0.09755
C         13.36432        37.35831        -0.66728
C         12.09763        38.11940        -0.76299
C         13.45751        40.24995        -1.33203
C         12.11621        39.51488        -1.22602
C         13.42955        41.71922        -1.24219
C         12.16730        42.40757        -1.29149
C         13.37278        44.56235        -1.30562
C         12.17366        43.81779        -1.30284
C         13.35656        45.97077        -1.23534
C         15.68585        14.67154         0.94474
C         15.69249        16.05612         0.79644
C         14.48646        16.83875         0.84041
C         15.72367        18.94366         0.47967
C         14.46764        18.21050         0.63208
C         15.75354        20.25970         0.06607
C         14.41530        20.69080        -0.49540
C         15.76917        23.27228        -0.20012
C         14.59301        22.72794         0.56269
C         15.81303        24.73048         0.18867
C         14.63404        25.40649         0.08754
C         15.79203        27.55742         0.31160
C         14.57809        26.84970         0.19951
C         15.76301        28.96551         0.20304
C         14.55116        29.68169         0.32841
C         15.78457        31.80283         0.67922
C         14.58473        31.10681         0.60303
C         15.88167        33.25555         0.94583
C         14.58334        34.04640         0.89453
C         15.86376        36.02144         0.08142
C         14.63133        35.38421         0.30172
C         15.88579        37.39476        -0.26827
C         14.69575        38.08361        -0.78122
C         15.85203        40.29182        -0.74525
C         14.70644        39.55449        -0.95620
C         15.88225        41.72774        -0.96214
C         14.63672        42.42495        -1.14142
C         15.85550        44.55893        -1.30953
C         14.65082        43.86311        -1.25272
C         15.81631        46.02239        -1.70660
C         14.55207        46.72086        -1.27049
C         15.79867        48.82829        -0.93011
C         14.57868        48.08356        -1.00401
C         15.78920        50.15965        -0.54730
C         18.12471        10.41559         1.53511
C         18.12048        11.76966         1.31619
C         16.90668        12.55746         1.24739
C         18.14353        14.57065         0.37419
C         16.89349        13.90026         0.91787
C         18.15066        16.07284         0.52704
C         16.96788        16.75292         0.68796
C         18.27387        18.94933         0.57309
C         16.96982        18.22322         0.80082
C         18.24120        20.37102         0.18464
C         17.00237        21.05138         0.05404
C         18.25505        23.18464        -0.05477
C         17.03082        22.47703        -0.01575
C         18.29484        24.66316        -0.00713
C         17.10342        25.33922         0.64474
C         18.37532        27.57256         0.04980
C         17.10050        26.85966         0.48840
C         18.24586        28.97480        -0.29697
C         16.99537        29.68375        -0.12153
C         18.35767        31.77341         0.46182
C         17.00995        31.19129         0.13750
C         18.40947        33.23874         0.93788
C         17.13507        33.96458         0.58575
C         18.40208        36.00841         0.09871
C         17.13123        35.30333         0.29162
C         18.39304        37.35886        -0.15491
C         17.13295        38.13540        -0.10501
C         18.36401        40.35610        -0.55937
C         17.10807        39.63070        -0.31402
C         18.34247        41.70779        -0.81272
C         17.09888        42.43400        -0.96307
C         18.32515        44.58188        -1.28804
C         17.12106        43.87026        -1.19265
C         18.32905        46.04037        -1.53555
C         17.07373        46.78476        -1.37481
C         18.31317        48.90047        -1.01440
C         17.07335        48.14558        -1.14307
C         18.26324        50.30332        -0.65583
C         16.99903        50.90531        -0.36759
C         18.14048        52.94909         0.33326
C         16.95626        52.21525         0.13220
C         18.09824        54.17450         1.06339
C         20.74076         6.32967         2.86230
C         20.69735         7.66514         2.35206
C         19.47101         8.26855         2.06629
C         20.68040        10.32779         1.26898
C         19.36941         9.60623         1.48066
C         20.70387        11.81547         1.36806
C         19.39417        12.54130         1.32947
C         20.68918        14.62502         0.49995
C         19.41686        13.98478         0.95232
C         20.62106        15.97726         0.11994
C         19.41918        16.76103         0.33659
C         20.79903        18.85755         0.24437
C         19.47139        18.14875         0.29821
C         20.73073        20.32855        -0.07290
C         19.48396        21.04969        -0.00120
C         20.73854        23.23557        -0.24153
C         19.45856        22.45978        -0.13393
C         20.48873        24.50826        -1.05432
C         19.41442        25.34697        -0.41559
C         20.63380        27.45499        -1.03484
C         19.55416        26.80392        -0.46200
C         20.64493        28.95567        -1.11886
C         19.42631        29.73128        -0.73728
C         20.89594        31.75651        -0.06843
C         19.57419        31.07030        -0.05889
C         20.95179        33.08231         0.71134
C         19.68833        33.92691         0.49681
C         20.91430        36.04292         0.06123
C         19.67879        35.27567         0.20182
C         20.92034        37.41056        -0.14322
C         19.63991        38.09063        -0.42654
C         20.86171        40.31235        -0.16374
C         19.63044        39.57904        -0.58871
C         20.80481        41.80595        -0.25556
C         19.63234        42.43144        -0.94397
C         20.85932        44.70506        -0.83078
C         19.64023        43.91298        -1.18579
C         20.83127        46.08772        -0.93485
C         19.62934        46.81641        -1.39196
C         20.78978        49.01153        -0.98504
C         19.55262        48.26807        -1.10756
C         20.75491        50.52367        -1.09854
C         19.44950        51.07419        -0.54705
C         20.60573        53.23493        -0.00643
C         19.39056        52.39243        -0.07721
C         20.50591        54.61388         0.66755
C         19.21090        54.95529         1.35220
C         19.85075        57.02688         2.64751
C         19.02965        55.92701         2.40047
C         19.89159        57.82961         3.81404
C         23.34403         3.70119         3.68810
C         22.11960         4.38539         3.69123
C         23.07272         6.62921         3.37938
C         21.94550         5.75643         3.31933
C         23.21189         7.80304         2.59680
C         21.96057         8.37754         2.10898
C         23.20231        10.32640         1.20153
C         21.95119         9.64973         1.58316
C         23.23036        11.75491         0.86677
C         21.96856        12.52620         0.96666
C         23.10802        14.45864        -0.14953
C         21.89223        13.88821         0.42245
C         23.11775        15.89705        -0.56154
C         21.78668        16.62625        -0.50109
C         23.08715        18.79132        -0.98075
C         21.79609        18.11551        -0.62878
C         23.11212        20.25722        -0.80783
C         21.94137        20.97175        -0.45564
C         22.93497        23.03380        -1.36252
C         21.89848        22.39820        -0.73496
C         22.72758        24.38364        -1.83230
C         21.76922        25.24114        -1.38864
C         23.20543        27.39157        -1.52051
C         21.79327        26.72218        -1.74867
C         23.21359        28.87393        -1.26739
C         21.96135        29.69379        -1.07367
C         23.37227        31.59954        -0.00965
C         22.00856        31.06979        -0.43633
C         23.49289        33.11814         0.14550
C         22.24034        33.88101         0.49267
C         23.42917        36.05659        -0.26433
C         22.21482        35.35778         0.23575
C         23.39185        37.47501        -0.36127
C         22.14973        38.17614        -0.22232
C         23.37520        40.31735        -0.28736
C         22.16050        39.59253        -0.19761
C         23.37347        41.79558        -0.11395
C         22.08407        42.57649        -0.16809
C         23.31751        44.68671        -0.57180
C         22.09053        44.01629        -0.53086
C         23.34622        46.15172        -0.53974
C         22.00566        46.89699        -0.60909
C         23.27552        49.08401        -0.96383
C         21.98574        48.35078        -0.88379
C         23.26551        50.52134        -0.56892
C         21.98604        51.20655        -0.51592
C         23.11916        53.22295         0.30118
C         21.92687        52.54066        -0.10924
C         23.03679        54.44797         0.97606
C         21.79438        55.16311         1.17998
C         22.93993        56.81020         2.62586
C         21.84539        56.41185         1.77983
C         23.01539        58.03707         3.29102
C         20.98493        58.67920         4.09690
C         22.54740        59.93942         5.54521
C         21.29220        59.31400         5.30553
C         24.63090         4.19810         3.41500
C         25.91532         6.35487         2.85121
C         24.94279         5.58184         3.46329
C         25.77035         7.80301         2.72839
C         24.47238         8.41827         2.43841
C         25.68505        10.55364         1.77223
C         24.53299         9.66592         1.65198
C         25.65362        11.82379         1.24702
C         24.43369        12.42832         0.77376
C         25.62157        14.67466         0.31324
C         24.47181        13.79042         0.17954
C         25.60660        16.01592        -0.17292
C         24.38600        16.65796        -0.58170
C         25.59842        18.75285        -1.00321
C         24.37364        18.03605        -0.91917
C         25.60913        20.17703        -1.44421
C         24.29320        20.93825        -1.35404
C         25.61838        23.15890        -1.40926
C         24.30716        22.43476        -1.28564
C         25.71707        24.63191        -1.64887
C         24.65422        25.39890        -2.05594
C         25.77917        27.52027        -1.75350
C         24.43869        26.80304        -1.73085
C         25.78993        28.84161        -1.04626
C         24.49767        29.49888        -0.79479
C         25.72280        31.71232        -1.25447
C         24.48021        30.99231        -0.85589
C         25.74351        33.20081        -1.16150
C         24.68263        33.88912        -0.35944
C         25.80057        36.08000        -0.88346
C         24.62590        35.37057        -0.50529
C         25.77071        37.48127        -0.96279
C         24.58475        38.19689        -0.64795
C         25.82163        40.33775        -0.80399
C         24.59325        39.63680        -0.58079
C         25.90661        41.79283        -0.61297
C         24.64879        42.55603        -0.31965
C         25.76261        44.70349        -0.84624
C         24.58056        44.00541        -0.60845
C         25.79155        46.15215        -0.89201
C         24.59752        46.85636        -0.81216
C         25.84743        49.02755        -0.64179
C         24.58135        48.32549        -0.94720
C         25.77488        50.49920        -0.49232
C         24.45394        51.16032        -0.29438
C         25.65703        53.12448         0.77079
C         24.47781        52.66493        -0.09551
C         25.57395        54.49228         1.32362
C         24.20830        54.96731         1.63929
C         25.85941        56.98435         3.33699
C         24.02298        55.88130         2.64972
C         25.46272        58.26673         3.87838
C         24.11140        58.62280         4.04390
C         23.77296        59.71079         4.93608
C         26.91082         8.58775         2.67281
C         28.13467        10.71452         2.10980
C         26.85828        10.08915         2.61124
C         28.13224        11.99770         1.61227
C         26.82917        12.70839         1.45972
C         28.12047        14.92001         0.99607
C         26.79518        14.15457         1.05617
C         28.09948        16.11785         0.06312
C         26.84172        16.75608        -0.27464
C         28.09070        18.75738        -1.14693
C         26.82300        18.08543        -0.76106
C         28.10871        20.24418        -1.28945
C         26.88505        20.96243        -1.40914
C         28.11944        23.09784        -1.33798
C         26.88917        22.37168        -1.45241
C         28.16966        24.53396        -1.20422
C         26.94660        25.31571        -1.27347
C         28.18433        27.44299        -0.95181
C         26.95887        26.69417        -1.27338
C         28.26056        28.89743        -1.19214
C         27.04631        29.62206        -1.20295
C         28.26733        31.72874        -1.46103
C         27.02732        31.00579        -1.32410
C         28.27504        33.12405        -1.57753
C         27.02346        33.90405        -1.44031
C         28.33336        36.06283        -1.45795
C         27.09485        35.34597        -1.05892
C         28.23049        37.50937        -1.77102
C         26.93032        38.23724        -1.49999
C         28.17854        40.40838        -1.56853
C         26.97799        39.69902        -1.28810
C         28.29640        41.85316        -1.34683
C         27.08784        42.52374        -1.09945
C         28.35238        44.75786        -1.00945
C         27.00237        43.97175        -1.15552
C         28.25158        46.15911        -0.57943
C         27.05433        46.86382        -0.73657
C         28.30511        48.96403        -0.18980
C         27.02009        48.30619        -0.53414
C         28.29959        50.43976         0.15793
C         27.02910        51.22011        -0.01439
C         28.02008        53.02379         1.47405
C         26.87014        52.48973         0.73959
C         27.98395        54.29807         2.02713
C         26.84142        55.19823         1.86016
C         26.88331        56.54115         2.55557
C         29.30645        12.65920         1.15091
C         30.50526        14.59277         0.31457
C         29.31690        14.00314         0.74503
C         30.57038        15.98912         0.00380
C         29.31239        16.69718        -0.24126
C         30.72697        18.73049        -1.01388
C         29.38351        17.99440        -0.94834
C         30.54153        20.23364        -0.81250
C         29.33378        20.93508        -1.22684
C         30.57739        23.10219        -1.23688
C         29.34441        22.37572        -1.26348
C         30.62244        24.49174        -1.29778
C         29.40634        25.20966        -1.18371
C         30.74231        27.40347        -1.17580
C         29.48282        26.66273        -0.94502
C         30.74360        28.81930        -1.27781
C         29.50248        29.56453        -1.30601
C         30.75869        31.66913        -1.60126
C         29.51507        30.98595        -1.47615
C         30.79336        33.10659        -1.79542
C         29.51308        33.82956        -1.96308
C         30.81033        36.11091        -2.13912
C         29.50471        35.34551        -2.07419
C         30.86232        37.67983        -2.09833
C         29.46318        38.28315        -1.89915
C         31.05662        40.61076        -1.32680
C         29.28874        39.64098        -2.05457
C         30.77243        41.84308        -0.74861
C         29.54954        42.57366        -1.06504
C         30.59524        44.56171         0.04408
C         29.51935        43.93654        -0.69480
C         30.53792        45.94315         0.39228
C         29.41036        46.75720         0.04229
C         30.49218        48.73462         1.04087
C         29.40291        48.12706         0.33307
C         30.41640        50.10572         1.43082
C         29.32017        50.92739         1.11826
C         29.17363        52.20342         1.67798
C         31.78538        16.62694        -0.12503
C         33.23504        18.63856        -0.55412
C         31.85503        18.12933        -0.11864
C         33.56706        19.94112        -0.30350
C         31.59622        21.01965        -0.43883
C         33.20722        22.92655        -1.11773
C         31.82015        22.33254        -1.05959
C         33.23952        24.42950        -1.32762
C         31.91652        25.20894        -1.42936
C         33.19188        27.35425        -1.19435
C         31.94752        26.67547        -1.24581
C         33.22677        28.78136        -1.27692
C         31.98784        29.52014        -1.40718
C         33.24973        31.66095        -1.70624
C         31.97578        30.93152        -1.55415
C         33.23809        33.13566        -1.51670
C         31.98956        33.81726        -1.68510
C         33.19946        36.00469        -1.23904
C         32.04682        35.29724        -1.84061
C         32.95903        37.34358        -0.61006
C         31.86977        38.24250        -1.06757
C         32.80851        40.15826         0.30188
C         31.90692        39.59966        -0.74293
C         32.85612        41.61745         0.53145
C         31.77897        42.41112         0.12025
C         32.78609        44.37333         1.22203
C         31.71084        43.79197         0.46374
C         32.72753        45.75201         1.52417
C         31.62826        46.54381         1.11757
C         31.57661        47.92596         1.43288
C         34.65063        20.83263        -0.60879
C         35.60064        23.05663        -0.44801
C         34.47447        22.24329        -0.64607
C         35.58572        24.48273        -0.47555
C         34.41324        25.19914        -0.89013
C         35.59464        27.34113        -0.61681
C         34.40331        26.61130        -0.93194
C         35.63312        28.74262        -0.76729
C         34.48148        29.45122        -1.18202
C         35.74623        31.68456        -1.09671
C         34.54773        30.89250        -1.52910
C         35.58340        33.12373        -0.77452
C         34.39976        33.84703        -1.18061
C         35.57958        35.99105        -0.51848
C         34.33436        35.28216        -0.93634
C         35.47811        37.42542        -0.09385
C         34.10659        37.94998         0.17383
C         35.21896        40.03926         1.22725
C         34.00980        39.34291         0.71491
C         35.07656        41.39234         1.62620
C         33.93789        42.18223         1.29012
C         33.87915        43.55806         1.61431
C         36.72944        25.20719        -0.09200
C         37.86548        27.32395         0.37256
C         36.76437        26.61918        -0.14311
C         37.91239        28.75092         0.34083
C         37.01041        29.39874        -0.69644
C         37.70545        31.58526         0.50745
C         36.94959        30.91919        -0.56659
C         37.46227        32.90749         0.72536
C         36.60321        33.74194        -0.05748
C         37.94507        35.93770         0.58042
C         36.79744        35.21180        -0.08232
C         37.85955        37.27411         0.82903
C         36.64845        38.08991         0.58895
C         36.42203        39.34309         1.32922
C         38.82023        29.43687         1.10609
C         40.12428        31.62223         1.12259
C         38.77578        30.91925         1.35694
C         40.36054        32.95824         1.08098
C         39.32820        33.98543         1.19778
C         39.25325        35.24554         0.69365
O         25.58756        42.24823         0.77669
O         23.97342        48.79479        -2.22850
O         17.98949        27.41849         1.50544
O         33.16420        37.08350         0.85697
O         36.65506        35.72498        -1.46006
O         22.42977        34.80512         1.60804
O         25.98862        33.76742        -2.48767
O         21.55051        12.34878         2.41689
O         24.62156        33.42413         1.03469
O         24.65868        31.37909        -2.24200
O         28.82521        49.98220        -1.11953
O         17.06583        39.08070         1.06376
O         24.01542         9.51143         0.29539
O         28.82154        27.04636         0.31443
O         13.12545        32.50064         2.11705
O         34.05718        31.21567        -2.86393
O         16.83354        30.70737        -1.21569
O         17.72314        18.74393         1.94768
O         19.92416        42.93380        -2.28095
O         36.31432        38.31286        -0.87211
O         19.11654        30.89883         1.34602
O         22.25584        16.01889        -1.74264
O         22.63886        29.64363        -2.37154
O         19.13043        46.42898        -2.72116
O         20.78071        57.30061         1.62869
O         20.46023        54.47482        -0.78305
O         22.01886        18.51148        -1.99612
O         24.05440         6.34084         4.29507
O         31.66847        35.66388        -3.22150
O         28.72709        18.01221        -2.26286
O         26.62828        51.28369        -1.41781
O         26.37585        55.40112         0.47768
O         32.58229        20.63598         0.44613
O         24.97434        22.92221        -0.06238
O         32.84863        39.44776         1.58931
O         23.64746        24.79612        -2.80107
O         14.10217        37.26480        -1.89769
O         19.33368        13.61577         2.34755
O         12.78253        39.70969        -2.51766
O         25.19614        28.84414         0.29810
O         38.12422        33.53840         1.79896
O         22.64814        46.64300         0.68256
O         30.38849        40.36489        -2.52314
O         29.26776        34.55945        -3.25946
O         27.73385        44.51870        -2.29726
O         19.71614        38.74097        -1.78179
O         12.88003        25.02507        -1.59179
O         32.69668        24.82581        -2.61716
O         20.50788        41.13483         1.00266
O         26.51030        13.74619         2.46721
O         19.77045        29.56365        -2.14799
O         32.65577        22.22558        -2.28124
O         15.30374        33.83569         2.15687
O         36.98241        31.53105        -1.89630
O         14.29276        21.01711        -1.67576
O         28.11470        35.69329        -0.05300
O         21.93549        58.90357         3.07562
O         23.84708        13.69403        -1.15023
O         24.77809        20.40155        -2.63132
O         24.94289        55.95738         3.68686
O          9.96789        33.80211         1.65981
O         27.27755        37.79025        -2.86375
O         19.99751         9.75963         0.11732
O         22.73735        42.29514         1.11131
O         10.31762        35.34166        -1.59118
O         19.96258        24.07786        -2.34297
H         19.87007        24.87177        -2.91276
O         18.40777        33.20349         2.38391
H         19.19151        32.65563         2.64403
O         37.64850        29.08636        -1.96156
H         37.43654        29.83008        -2.57539
O         15.76829        46.02048        -3.17838
H         16.65998        45.77380        -3.50751
O         21.37426        18.73718         1.59852
H         20.67101        18.96873         2.24329
O         23.54578        31.04246         1.31722
H         24.15386        31.63370         1.81565
O         17.19278        25.04482         2.06879
H         17.79177        25.72650         2.45484
O         15.49708        23.32668        -1.62176
H         15.20076        22.43920        -1.94531
O         26.61675        10.57159         3.97896
H         26.58413        11.55230         3.94138
O         28.35529        15.50150         2.30847
H         27.88072        14.92844         2.95697
O         26.05283        27.83105        -3.15206
H         26.00085        27.00136        -3.67166
O         31.54429        18.52166         1.23996
H         32.23991        18.16827         1.83136
O         31.34922        38.11269        -3.37748
H         30.91898        37.57985        -4.07858
O         14.83136        22.00717         1.68514
H         13.99028        21.83347         2.15660
O         11.02503        24.11145         2.02432
H         10.94839        23.44798         2.73939
O         13.20883        36.78685         1.60394
H         13.32965        36.08707         2.28232
O         38.45265        31.05554         2.76425
H         38.35964        32.02167         2.93955
O         31.21703        18.60761        -2.36417
H         30.42874        18.59682        -2.95673
O         24.74344        53.24398        -1.40967
H         25.53508        52.77496        -1.77404
O         10.62520        23.85537        -1.58688
H         11.45235        23.99605        -2.11096
O         21.51426        26.85220        -3.16219
H         22.23769        26.40000        -3.64871
O         20.99442        32.69090         2.11006
H         21.39571        33.44792         2.59748
O         21.12418        23.66108         1.09651
H         21.33722        22.86384         1.62524
O         20.75430        50.82632        -2.52501
H         20.85361        51.79649        -2.62962
O         18.19519        14.27339        -1.05170
H         17.41536        14.68337        -1.48073
H          4.95704        31.23582        -0.48601
H          4.93792        33.70223        -0.57434
H          7.43355        26.98894        -0.22026
H          6.19981        29.09892        -0.31787
H          6.14831        35.86316        -0.47313
H          7.45627        38.06231        -0.62163
H          9.96157        22.82673         0.74761
H          8.60786        24.89960        -0.20358
H          8.71575        40.15108        -0.82971
H          9.99989        42.26835        -1.16404
H         12.37256        18.52529         1.22787
H         11.12640        20.69304         0.85677
H         11.21409        44.35629        -1.31257
H         12.39738        46.49079        -1.08852
H         14.73423        14.15622         1.14832
H         13.53447        16.31108         1.00344
H         13.63688        48.60499        -0.77168
H         14.82960        50.66008        -0.34789
H         17.16805         9.87827         1.62841
H         15.95606        12.05885         1.49562
H         15.98922        52.66241         0.40480
H         17.13223        54.45776         1.50857
H         19.80786         5.74879         2.90908
H         18.54399         7.75025         2.35520
H         18.14704        55.78849         3.04465
H         19.14815        57.64943         4.60334
H         23.26605         2.60490         3.77013
H         21.20894         3.77330         3.77402
H         22.56782        60.64126         6.39544
H         20.52915        59.36549         6.09556
H         25.41284         3.48665         3.11370
H         26.81096         5.88962         2.41546
H         26.23234        58.95652         4.25955
H         24.62948        60.26745         5.34968
H         27.89260         8.10793         2.80527
H         29.08397        10.16788         2.21544
H         28.81820        54.62140         2.66817
H         27.67851        57.22561         2.22491
H         30.24967        12.09200         1.12388
H         31.42898        13.99535         0.27655
H         31.21074        50.50984         2.07646
H         29.97819        52.59327         2.31996
H         32.71159        16.04573         0.00860
H         33.87388        17.99037        -1.16963
H         33.55085        46.22140         2.08244
H         32.40718        48.37567         1.99689
H         35.68067        20.44520        -0.66057
H         36.54899        22.56843        -0.17629
H         35.93370        41.89034         2.10429
H         34.70423        44.01106         2.18388
H         37.62096        24.66182         0.25100
H         38.65490        26.77128         0.90488
H         38.73337        37.79338         1.25235
H         37.28593        39.82479         1.81212
H         39.49628        28.85604         1.75445
H         40.99219        30.95780         0.97905
H         41.38471        33.30186         0.86257
H         40.14174        35.75174         0.28801
