         314
 CSIRO Nanostructure Databank - Neutral Graphene Oxide Data Set
C         30.59106        57.41804         0.67678
C         30.56913        58.81732         0.33266
C         29.45554        59.61786         0.67037
C         30.65496        61.59946        -0.03220
C         29.50211        60.99649         0.46979
C         32.99620        53.07003         0.79351
C         32.95809        54.42830         0.73872
C         31.70241        55.21048         1.06199
C         32.90777        57.21834        -0.02486
C         31.72649        56.64793         0.57680
C         32.79007        58.52178        -0.61165
C         31.69711        59.40546        -0.30968
C         32.97602        61.57498        -0.77770
C         31.77463        60.84191        -0.45688
C         35.34162        48.68856         0.45045
C         35.32353        50.13149         0.26834
C         34.17699        50.89258         0.56945
C         35.44606        52.96538         0.33843
C         34.21398        52.30146         0.56914
C         35.50340        54.43778         0.44223
C         34.21645        55.19457         0.57995
C         35.28327        57.05273        -0.75220
C         34.15092        56.53572        -0.04930
C         34.98719        58.13853        -1.60742
C         33.80754        58.85663        -1.51674
C         35.40229        61.47472        -1.36641
C         34.06731        61.05217        -1.49558
C         37.84380        44.42801         0.90141
C         37.80203        45.76161         0.52672
C         36.45865        46.45963         0.65076
C         37.66616        48.50581        -0.33945
C         36.45876        47.92493         0.27491
C         37.67851        50.02515        -0.53677
C         36.51527        50.80603        -0.09502
C         37.85560        52.86985        -0.33446
C         36.59870        52.22028        -0.02015
C         37.96525        54.34932        -0.31098
C         36.73453        55.17023        -0.02191
C         37.82002        57.17009        -1.03914
C         36.63246        56.50740        -0.64942
C         37.88056        58.60833        -1.34529
C         36.82240        59.35209        -1.84905
C         37.80815        61.47677        -1.17458
C         36.66023        60.78108        -1.57317
C         40.33797        40.17190         1.49471
C         40.29262        41.60912         1.39656
C         39.07785        42.32089         1.30035
C         40.26682        44.31544         0.47541
C         39.06172        43.67713         0.91387
C         40.24112        45.69722         0.03644
C         38.98972        46.42764         0.09061
C         40.15003        48.51190        -0.56788
C         38.96663        47.80879        -0.27411
C         40.17612        49.93675        -0.66300
C         38.98315        50.68884        -0.60003
C         40.26978        52.77445        -0.92718
C         38.98725        52.11489        -0.61240
C         40.34644        54.25248        -1.12574
C         39.10178        55.04927        -0.93785
C         40.38550        57.12760        -1.44094
C         39.07996        56.41772        -1.06740
C         40.33438        58.52547        -0.84748
C         39.15905        59.33535        -1.23255
C         40.35227        61.73556        -0.91792
C         39.14548        60.89064        -1.23948
C         42.66386        35.95531        -0.05592
C         42.53738        37.43217         0.30000
C         41.47289        38.02756         0.94279
C         42.80129        40.13443         1.16596
C         41.48282        39.45166         1.18566
C         42.79178        41.68940         1.38252
C         41.50142        42.33052         1.16714
C         42.70742        44.14453        -0.08400
C         41.48224        43.60145         0.55149
C         42.67049        45.59404        -0.54258
C         41.41461        46.33774        -0.36182
C         42.70260        48.47713        -0.54079
C         41.41732        47.75179        -0.87955
C         42.67830        49.90178        -0.41556
C         41.45737        50.62800        -0.56076
C         42.64443        52.75929        -0.18071
C         41.48556        52.03693        -0.54274
C         42.64053        54.22681        -0.16127
C         41.61288        54.92642        -0.75161
C         42.80002        57.12703        -0.31024
C         41.65535        56.39365        -0.95340
C         42.64851        58.55378         0.05897
C         41.31558        59.05949        -0.06895
C         42.74563        61.64716        -0.01402
C         41.33994        61.28772        -0.09718
C         45.10600        33.41994         1.45345
C         43.93528        34.11774         1.05564
C         45.30487        35.85121         0.06199
C         43.99665        35.31588         0.36610
C         45.50134        37.06860        -0.61831
C         43.58998        38.27850        -0.17812
C         45.04951        40.25192        -0.14842
C         43.86596        39.53735         0.32756
C         45.70867        41.29159         0.42857
C         43.99898        42.46355         1.06877
C         45.25203        44.16598        -0.31427
C         44.02827        43.54831         0.23570
C         45.17117        45.61886        -0.55399
C         43.96224        46.32098        -0.56827
C         45.16193        48.49273        -0.44114
C         43.91652        47.76771        -0.51795
C         45.15311        49.92838        -0.22719
C         43.88443        50.63282        -0.18197
C         45.08205        52.80206         0.25704
C         43.83750        52.03073         0.03283
C         44.99065        54.13581         0.93616
C         43.71614        54.92900         0.60638
C         44.60592        57.21175         1.27229
C         43.75138        56.40843         0.55393
C         44.91970        58.60675         0.96502
C         43.73400        59.32710         0.48215
C         45.16756        61.28612         0.09442
C         43.76454        60.78231         0.31562
C         46.35612        33.92730         1.19015
C         47.77608        35.74496         0.29979
C         46.49895        35.17484         0.50858
C         47.92805        37.03758        -0.24132
C         46.75062        37.71189        -0.70305
C         48.00294        39.83272        -0.83737
C         46.84230        39.10450        -1.01398
C         47.95539        41.33345        -0.84525
C         46.79056        42.07619        -0.21737
C         47.59236        44.26845        -1.12173
C         46.44366        43.49560        -0.57461
C         47.64247        45.70664        -0.79818
C         46.41472        46.36358        -0.62235
C         47.64741        48.50588        -0.58349
C         46.36826        47.79435        -0.56260
C         47.64450        49.97191        -0.21421
C         46.34324        50.61120        -0.01450
C         47.62713        52.67926         0.70528
C         46.37786        52.06501         0.20200
C         47.54852        54.05000         1.24360
C         46.28279        54.80315         1.22708
C         47.52854        56.93253         1.59093
C         46.36776        56.08470         1.72997
C         47.40364        58.40398         1.58845
C         46.19400        59.16164         1.21454
C         47.55839        61.25968         0.41620
C         46.27025        60.71198         1.00786
C         49.17223        37.74277        -0.32608
C         50.53757        39.76646        -0.68778
C         49.22886        39.10619        -0.60411
C         50.78956        41.07437        -0.65050
C         48.78398        42.08767        -1.85174
C         50.17305        44.28814        -1.46077
C         48.84176        43.59006        -1.58897
C         50.16989        45.71968        -1.12062
C         48.90785        46.39593        -0.80571
C         50.13696        48.50233        -0.28787
C         48.89885        47.75056        -0.49047
C         50.12933        49.97145        -0.07337
C         48.85232        50.51244         0.52924
C         50.08008        52.68553         1.03618
C         48.80993        52.01348         0.68790
C         50.11494        54.15616         1.18799
C         48.83839        54.82041         1.53930
C         50.02314        57.03397         1.64251
C         48.75789        56.29467         1.53266
C         49.96261        58.51018         1.59415
C         48.64720        59.05461         1.81260
C         50.07021        61.48299         0.78483
C         48.72669        61.12092         1.09454
C         51.33274        42.23035        -0.30071
C         52.63902        44.35439        -0.66875
C         51.47384        43.53154        -1.02054
C         52.65663        45.72222        -0.90064
C         51.37725        46.39659        -1.02928
C         52.58890        48.62673        -1.11685
C         51.41819        47.81511        -0.60914
C         52.54027        50.09436        -0.66937
C         51.29608        50.66802        -0.06913
C         52.55435        52.84375         0.44303
C         51.36096        51.99591         0.61006
C         52.52394        54.19546         0.67446
C         51.28915        54.85864         1.04551
C         52.51908        57.11902         1.13453
C         51.32331        56.30088         1.40975
C         52.43551        58.54169         1.25783
C         51.15812        59.24948         1.40866
C         52.43448        61.36533         1.04607
C         51.18473        60.69855         1.14303
C         53.85883        46.51995        -0.72337
C         55.09324        48.66300        -0.63375
C         53.89039        47.90833        -0.77844
C         55.12340        50.06338        -0.51876
C         53.83320        50.80858        -0.45653
C         55.11624        52.87381         0.31131
C         53.83618        52.11397         0.27058
C         55.05729        54.34443         0.40831
C         53.72054        55.04427         0.29586
C         54.94984        57.17747         0.83782
C         53.72695        56.46130         0.83302
C         54.89969        58.57680         1.06152
C         53.66521        59.25866         1.15626
C         54.87304        61.44610         1.04756
C         53.66835        60.71211         1.13160
C         56.31869        50.81514        -0.44315
C         57.49959        52.99368        -0.27418
C         56.34764        52.21174        -0.18583
C         57.48585        54.39716         0.00060
C         56.22374        55.06782         0.31656
C         57.40760        57.20855         0.47919
C         56.21269        56.50635         0.54202
C         57.46591        58.62357         0.87724
C         56.15515        59.34100         1.18323
C         57.33080        61.50716         0.85636
C         56.13237        60.81113         1.03391
C         58.64257        55.16019        -0.14769
C         59.78886        57.34323        -0.13941
C         58.64103        56.57297         0.06036
C         59.78833        58.77178         0.00194
C         58.62284        59.42984         0.47239
C         59.73813        61.58749         0.25558
C         58.57035        60.84550         0.57136
C         60.93142        59.54859        -0.30315
C         60.89822        60.93781        -0.16157
O         47.83347        49.58374        -1.60566
O         43.03149        40.75984         2.46574
O         42.83023        56.82216        -1.75757
O         44.39833        37.72188        -1.18310
O         35.09178        55.01072         1.74422
O         45.89000        52.85320        -0.97597
O         33.72915        59.97933        -2.34944
O         45.27155        56.66333         2.36699
O         45.64863        39.77916        -1.34585
O         37.40956        49.10606        -1.65412
O         57.02289        58.86791         2.26229
O         35.87263        58.61478        -2.57910
O         47.91654        44.15495        -2.58471
O         54.59919        52.14178         1.51630
O         48.13180        54.12329         2.60898
O         51.03683        47.93522         0.78792
O         49.23580        41.58607        -2.85982
O         39.40137        60.11896        -2.46482
O         40.99232        60.18381         0.70529
O         48.61305        60.36139         2.29567
O         37.75721        54.98972         1.01517
O         43.92802        54.27708         1.91059
O         42.54573        44.47616        -1.49783
O         50.83174        56.52442         2.77827
O         48.08956        41.95887         0.47786
O         50.88447        51.93134         2.01001
O         45.18035        41.91225         1.58269
O         51.11708        43.74136        -2.41349
O         53.11038        50.95431        -1.73357
O         40.35331        53.36305        -2.29175
O         42.48219        35.79876        -1.46912
H         43.16038        36.35456        -1.91564
O         46.05695        61.28604         2.31576
H         46.83648        61.04503         2.86718
O         41.43737        47.62521        -2.34975
H         40.63401        47.13161        -2.62003
O         52.45485        48.60284        -2.55605
H         52.91492        49.40429        -2.89864
O         40.44045        57.19364        -2.87435
H         41.37884        57.34895        -3.12280
O         45.48967        60.98859        -1.28076
H         45.26528        60.05081        -1.45580
O         30.53156        54.54136         0.58142
H         30.53478        54.57557        -0.39678
O         35.47965        45.76190        -0.13924
H         35.69868        45.89678        -1.08426
O         48.75943        49.97508         1.87834
H         49.50801        50.36310         2.39026
O         53.53699        55.22521        -1.16607
H         54.28307        55.77299        -1.49256
H         29.68043        56.97511         1.10733
H         28.57191        59.15241         1.12949
H         30.69720        62.69501        -0.11651
H         28.64244        61.61992         0.75229
H         32.06345        52.51359         0.97213
H         31.61188        55.22746         2.18475
H         33.06894        62.58180        -0.33909
H         34.43202        48.21796         0.85397
H         33.23589        50.37872         0.81516
H         35.51933        62.43365        -0.83244
H         36.91635        43.93659         1.22991
H         36.11778        46.36203         1.71737
H         37.70441        62.49518        -0.77072
H         39.38341        39.63405         1.60045
H         38.12737        41.80654         1.50424
H         40.51785        62.60995        -1.56501
H         41.83836        35.38974         0.44487
H         40.58685        37.44142         1.22971
H         43.02905        62.66915        -0.31402
H         44.99969        32.46594         1.98851
H         42.95425        33.68646         1.30458
H         45.19764        62.39831         0.19728
H         47.25802        33.39109         1.51819
H         48.66373        35.19630         0.64674
H         47.52042        61.79068        -0.54461
H         50.10277        37.20293        -0.09727
H         51.39257        39.09631        -0.90113
H         50.25844        62.44241         0.27961
H         51.62555        42.31972         0.76678
H         53.53169        43.85477        -0.26335
H         52.42609        62.45523         0.89575
H         54.79866        45.97689        -0.53475
H         56.04617        48.11366        -0.57215
H         54.82089        62.54171         0.95972
H         57.27532        50.29519        -0.60660
H         58.44608        52.53329        -0.59582
H         57.30558        62.60667         0.81352
H         59.58169        54.66889        -0.44286
H         60.71783        56.84720        -0.45781
H         59.71702        62.68380         0.33367
H         61.84810        59.04985        -0.64839
H         61.79511        61.52764        -0.39738
