         404
 CSIRO Nanostructure Databank - Neutral Graphene Oxide Data Set
C          2.61401         1.77107         3.85403
C          2.48330         3.14926         3.67687
C          3.80227         1.14510         3.50941
C          3.57262         3.93405         3.24536
C          2.00685         5.86228         2.74104
C          1.71866         7.04990         2.06614
C          3.30576         5.29424         2.73275
C          2.71484         7.73224         1.35674
C          1.40251        10.86353         1.44334
C          1.48047        12.21168         1.77581
C          2.53217        10.17624         0.97500
C          2.68683        12.94427         1.62648
C          1.63415        15.10579         2.40417
C          1.70247        16.42220         2.74761
C          2.79456        14.32308         2.03872
C          2.99192        17.08583         2.97259
C          3.10711        18.55495         3.04566
C          4.95371         1.88719         3.13648
C          4.85999         3.32480         3.11894
C          6.05192         1.10067         2.62688
C          6.00564         4.22767         2.84279
C          4.30907         5.99109         2.02691
C          4.03202         7.18733         1.29466
C          5.70434         5.55973         2.16774
C          5.09003         7.82886         0.58883
C          3.75120        10.88078         0.73430
C          3.83108        12.27285         1.09114
C          4.90886        10.24282         0.21394
C          5.06305        12.97686         0.91416
C          4.04894        14.96620         1.94478
C          4.23231        16.31498         2.51579
C          5.14450        14.32906         1.32369
C          5.44773        17.08769         2.20220
C          4.30519        19.17614         2.92405
C          5.51917        18.47416         2.53382
C          7.36981         1.55528         2.49514
C          7.37915         3.72840         2.61189
C          8.36304         1.18136         1.58794
C          8.30452         4.25892         1.74075
C          6.73764         6.14594         1.30375
C          6.41603         7.29621         0.53986
C          8.03210         5.58778         1.18684
C          7.47517         7.96259        -0.12844
C          6.15792        10.91673         0.07212
C          6.24469        12.28419         0.45494
C          7.35295        10.24245        -0.31410
C          7.53150        12.88185         0.44961
C          6.36985        15.09503         1.03845
C          6.53764        16.45112         1.59680
C          7.61092        14.34678         0.59652
C          7.78317        17.11331         1.46332
C          6.72263        19.15702         2.33765
C          7.88043        18.48786         1.85787
C          9.45076         2.03397         1.17601
C          9.44226         3.49502         1.21523
C         10.50613         1.37984         0.51403
C         10.40469         4.20434         0.46499
C          9.06548         6.32715         0.58043
C          8.81667         7.60887         0.01752
C         10.45425         5.73536         0.53678
C          9.91563         8.49916        -0.42225
C          8.65054        10.73247        -0.07696
C          8.70498        12.11840         0.28731
C          9.87944         9.94086        -0.32759
C         10.00956        12.77819         0.50155
C          8.91764        15.00139         0.76449
C          8.96409        16.39763         1.05462
C         10.08742        14.25531         0.59228
C         10.21907        17.05278         1.04615
C          9.12604        19.15205         1.74276
C         10.28608        18.46499         1.34320
C         11.50245         2.08183        -0.19601
C         11.39389         3.50483        -0.28056
C         12.57604         1.43872        -0.85779
C         12.25549         4.19757        -1.18974
C         11.16204         6.37126        -0.64029
C         11.09432         7.83439        -0.82112
C         11.85060         5.55737        -1.48591
C         12.24710         8.59168        -1.23160
C         11.11864        10.63116        -0.42000
C         11.26059        12.01514         0.09639
C         12.29715         9.98669        -0.90254
C         12.48975        12.79617        -0.15441
C         11.35267        14.90749         0.54094
C         11.40433        16.32079         0.73967
C         12.54434        14.18551         0.17266
C         12.66101        17.00174         0.67790
C         11.52975        19.13328         1.22258
C         12.70166        18.44539         0.86687
C         13.56036         2.16819        -1.55108
C         13.38053         3.58196        -1.77027
C         14.74825         1.49165        -1.97917
C         14.47984         4.34343        -2.45073
C         13.49168         6.63102        -2.29970
C         13.43446         7.99451        -1.78508
C         14.58739         5.82598        -2.25976
C         14.62946         8.70006        -1.85250
C         13.53545        10.72619        -1.02243
C         13.63007        12.11688        -0.65006
C         14.70085        10.07515        -1.50709
C         14.88910        12.80323        -0.73827
C         13.77732        14.90287         0.06234
C         13.83231        16.28539         0.39017
C         14.96773        14.21049        -0.40499
C         15.17614        16.98339         0.52001
C         13.90216        19.15944         0.65419
C         15.11694        18.50364         0.34344
C         15.89070         2.16727        -2.40331
C         15.80136         3.63043        -2.65717
C         17.11636         1.49086        -2.61510
C         17.07210         4.40682        -2.61427
C         15.90492         6.49692        -1.94461
C         15.81950         7.95704        -2.34148
C         17.12659         5.77401        -2.46848
C         17.08211         8.69825        -2.56169
C         15.94570        10.77897        -1.65920
C         16.03150        12.12339        -1.23266
C         17.10791        10.13510        -2.20821
C         17.35119        12.77859        -1.25889
C         16.13405        14.93679        -0.66690
C         16.15060        16.39937        -0.50925
C         17.40882        14.28362        -0.97766
C         17.40769        17.15381        -0.74889
C         16.27981        19.18872         0.05871
C         17.59752        18.45471         0.02356
C         18.34753         2.17812        -2.71535
C         18.32441         3.64265        -2.48996
C         19.57954         1.52699        -2.82182
C         19.63003         4.40593        -2.52993
C         18.37641         6.51754        -2.60098
C         18.35902         7.94032        -2.64152
C         19.61983         5.85846        -2.76959
C         19.51914         8.64076        -2.96987
C         18.28980        10.82964        -2.44247
C         18.44092        12.19842        -2.06071
C         19.40477        10.11446        -3.11386
C         19.57293        12.97216        -2.37320
C         18.56673        15.04662        -1.48508
C         18.61019        16.46098        -1.25950
C         19.66507        14.36440        -2.04730
C         19.74069        17.21209        -1.52942
C         18.76874        19.23726        -0.50527
C         19.81859        18.62582        -1.17733
C         20.83611         2.22076        -2.77239
C         20.86319         3.64471        -2.74265
C         22.06176         1.51055        -2.72462
C         22.07243         4.36838        -2.65742
C         20.84083         6.54718        -3.06078
C         20.75077         7.98019        -3.27674
C         22.09021         5.81386        -2.87197
C         21.82614         8.79858        -3.77608
C         20.63630        10.90171        -3.39983
C         20.69383        12.36406        -3.12298
C         21.90224        10.19578        -3.63750
C         22.04158        13.04413        -3.11606
C         20.89981        15.09085        -2.32970
C         20.86126        16.56907        -2.23627
C         22.06902        14.44052        -2.65859
C         22.12622        17.35558        -2.46699
C         21.04534        19.33663        -1.40609
C         22.20793        18.72484        -1.89509
C         23.26835         2.18715        -2.45313
C         23.24861         3.61201        -2.38423
C         24.48792         1.48481        -2.14042
C         24.38697         4.28755        -1.78352
C         23.36244         6.44905        -2.77150
C         23.71926         7.67705        -3.37890
C         24.40666         5.81891        -1.95193
C         24.84813         8.43180        -3.00310
C         23.11146        10.96102        -3.74009
C         23.30729        12.26077        -3.23453
C         25.00714         9.81730        -3.33994
C         24.58436        12.86734        -2.87513
C         23.37105        15.10444        -2.88447
C         23.40178        16.61091        -2.73992
C         24.60821        14.29490        -2.66953
C         24.66571        17.23756        -2.34622
C         23.45902        19.36242        -1.88072
C         24.67920        18.64955        -2.08921
C         25.65275         2.13176        -1.71599
C         25.65268         3.57023        -1.55462
C         26.85555         1.42926        -1.36803
C         26.79145         4.25468        -1.16336
C         25.70037         6.47539        -1.79692
C         25.85616         7.79188        -2.18801
C         26.77799         5.73819        -1.11598
C         27.10364         8.49532        -2.00582
C         25.91166        10.66725        -2.69674
C         25.81938        12.12158        -2.60345
C         27.16207         9.93498        -2.34143
C         26.92556        12.82651        -2.02871
C         25.78762        14.99580        -2.32765
C         25.82814        16.44969        -2.23131
C         26.95703        14.25434        -1.92736
C         27.06490        17.11230        -1.96075
C         25.92096        19.29805        -1.97959
C         27.12128        18.55224        -1.94547
C         28.01299         2.09327        -0.97218
C         28.03069         3.55014        -0.92494
C         29.20164         1.37432        -0.58095
C         29.22899         4.22981        -0.69843
C         28.10565         6.45693        -1.02890
C         28.21210         7.82963        -1.54519
C         29.32857         5.65995        -0.78859
C         29.51344         8.51877        -1.44256
C         28.35672        10.69431        -1.85305
C         28.08971        12.09556        -1.44786
C         29.48539         9.97112        -1.24690
C         29.24239        12.77908        -0.75397
C         28.12044        14.95134        -1.47630
C         28.22343        16.35939        -1.61791
C         29.19936        14.29005        -0.62066
C         29.46217        17.05782        -1.34983
C         28.36571        19.20666        -1.81919
C         29.54667        18.48270        -1.54276
C         30.40503         2.01450        -0.33090
C         30.53295         3.47043        -0.71198
C         31.57883         1.34307         0.12463
C         31.66356         4.17611        -0.00884
C         30.50862         6.32691        -0.53882
C         30.68469         7.74652        -0.87345
C         31.56113         5.64422         0.28301
C         31.78063         8.51199        -0.25414
C         30.57460        10.64535        -0.68733
C         30.53690        12.06841        -0.57926
C         31.75373         9.91242        -0.24106
C         31.69357        12.77560        -0.14353
C         30.58510        14.86580        -0.91349
C         30.60577        16.37248        -0.88531
C         31.66687        14.17715        -0.11070
C         31.79443        17.06299        -0.61514
C         30.79860        19.13438        -1.43883
C         31.94195        18.44377        -0.98466
C         32.76892         2.02448         0.41709
C         32.79987         3.48563         0.34671
C         33.91277         1.35778         0.94475
C         34.01577         4.20466         0.68984
C         32.88267         6.36151         0.29210
C         32.91568         7.77617         0.20977
C         34.04715         5.61956         0.55845
C         34.09638         8.49897         0.58959
C         32.88881        10.64034         0.26500
C         32.86682        12.05615         0.32676
C         34.06496         9.92343         0.64719
C         34.00253        12.76197         0.83332
C         32.76388        14.90611         0.49358
C         32.86607        16.43627         0.16845
C         34.01071        14.21234         0.86294
C         34.19470        17.03007         0.18262
C         33.21771        19.05364        -0.86182
C         34.33805        18.34723        -0.35393
C         35.06144         2.04769         1.34067
C         35.15746         3.48325         1.15136
C         36.15993         1.37169         1.97044
C         36.34609         4.15370         1.51206
C         35.31775         6.34977         0.67075
C         35.28920         7.80118         0.88957
C         36.53330         5.57065         1.18572
C         36.43844         8.48277         1.36284
C         35.22212        10.62583         1.09063
C         35.15355        12.03649         1.22535
C         36.40670         9.90345         1.47389
C         36.28170        12.73642         1.84624
C         35.15022        14.95629         1.17057
C         35.28376        16.35647         0.79366
C         36.30095        14.27819         1.80319
C         36.53830        17.02365         0.92453
C         35.62131        18.94392        -0.28217
C         36.69023        18.30982         0.35461
C         37.29186         2.04440         2.38700
C         37.42274         3.46962         2.14820
C         38.35613         1.37644         3.12158
C         38.58109         4.16422         2.53793
C         37.59929         6.33011         1.84992
C         37.58977         7.74257         1.83986
C         38.64396         5.59826         2.48335
C         38.70355         8.44969         2.39308
C         37.56514        10.60678         1.93353
C         37.55497        12.02526         2.02476
C         38.72141         9.87998         2.37225
C         38.72064        12.75083         2.35320
C         37.61096        14.93196         1.87510
C         37.57777        16.44691         1.88589
C         38.75170        14.20373         2.23104
C         38.96209        17.08500         1.77524
C         38.00115        19.06743         0.32337
C         39.14993        18.40944         1.05076
C         39.50688         2.00571         3.43229
C         39.81541         3.39292         2.93501
C         40.70067         4.18546         3.86110
C         39.72901         6.30155         3.08381
C         39.78683         7.72476         2.98406
C         40.69633         5.53825         3.85145
C         40.90359         8.47136         3.47000
C         39.85996        10.59208         2.84166
C         39.89502        12.03171         2.75043
C         40.94750         9.84248         3.37834
C         41.06820        12.76197         3.04696
C         40.02480        14.87110         2.38492
C         40.16809        16.26259         2.00079
C         41.13280        14.13395         2.83796
C         41.41322        16.81767         1.75293
C         40.50366        18.76811         0.61598
C         41.57688        18.05319         1.05835
O         32.38122        15.93781         1.45448
O         19.01093         4.02161        -1.23444
O         23.43439        15.97936        -4.06148
O         23.96170         5.19419        -0.70914
O         30.57092         8.01040        -2.33160
O          4.78112         8.93068        -0.16233
O         17.79325        13.28493         0.04057
O         16.30161        17.19750        -1.72946
O         38.99556        18.36648         2.50615
O         19.65615        10.59920        -4.47578
O         14.89657         3.91418        -3.78979
O          6.75440        15.03956        -0.38546
O         28.14515        12.17026         0.03231
O         16.19367         8.31785        -3.70055
O         15.70074        16.74053         1.79757
O          6.05104         5.47938         3.61307
O         28.23107        10.36113        -3.27721
O          7.72817         2.61508         3.36332
O         35.92389        13.54205         3.01464
O         21.17490        13.03830        -4.32787
O         27.20315         6.35272         0.14305
O         21.14503        17.24073        -3.53154
O         24.18797        10.31865        -4.34974
O         22.89599         8.14965        -4.40777
O          3.85565        16.38680         3.93290
O         12.27542         6.07815        -2.71842
O         36.36820         5.89113        -0.24016
O          7.15172         9.02838        -0.96314
O          2.34585         8.84372         0.60080
O         10.82937        12.10752         1.51367
O         37.06840        16.78177         3.21217
H         37.48497        17.63887         3.46439
O         38.41315        19.22115        -1.04425
H         37.64531        19.52973        -1.56769
O         30.93686         3.46252        -2.13614
H         31.76997         2.94773        -2.19934
O         31.05666         5.73455         1.67599
H         31.69319         5.25583         2.24901
O         16.09154         6.52646        -0.49214
H         16.38908         5.64036        -0.19561
O         28.85535        14.60912         0.74191
H         28.23618        13.90994         1.05289
O         17.94024        18.11495         1.39543
H         17.16550        17.56966         1.76308
O         11.15943         6.09388         1.75849
H         10.66633         5.70918         2.51334
O         40.60109         3.20396         1.69772
H         40.76848         4.09540         1.32400
O         30.84018        14.50401        -2.31187
H         31.66858        14.94064        -2.60098
H          1.75218         1.17775         4.18875
H          1.49944         3.60642         3.84076
H          3.87336         0.04885         3.54503
H          1.19130         5.37799         3.29315
H          0.70124         7.46184         2.09788
H          0.46084        10.31600         1.58168
H          0.58853        12.70201         2.18686
H          0.64075        14.64830         2.29560
H          0.77975        17.00968         2.86547
H          2.19362        19.14069         3.22844
H          5.79827         0.10383         2.23506
H          4.36653        20.26938         3.03329
H          8.26572         0.21591         1.06862
H          6.78605        20.22837         2.57950
H         10.53186         0.28013         0.51700
H          9.19414        20.21880         2.00237
H         12.68494         0.34792        -0.76547
H         11.57310        20.21964         1.39114
H         14.80729         0.40489        -1.81461
H         13.90503        20.24921         0.81808
H         17.12231         0.39036        -2.59089
H         16.25196        20.28019        -0.09607
H         19.59469         0.42976        -2.90420
H         18.87931        20.28506        -0.18461
H         22.05019         0.41116        -2.75619
H         21.11312        20.37333        -1.04213
H         24.48377         0.38667        -2.21011
H         23.51912        20.41639        -1.57068
H         26.85757         0.33018        -1.42565
H         25.95863        20.39046        -1.86224
H         29.13231         0.28142        -0.46222
H         28.40476        20.30415        -1.87996
H         31.52898         0.25815         0.30637
H         30.87066        20.20449        -1.68188
H         33.87216         0.26588         1.07765
H         33.34147        20.10466        -1.15983
H         36.07543         0.28911         2.15071
H         35.76227        19.95314        -0.69978
H         38.18616         0.33671         3.44078
H         37.83259        20.09369         0.76779
H         40.29543         1.47696         3.98902
H         41.44215         3.64058         4.46462
H         41.41664         6.08026         4.48101
H         41.76064         7.94308         3.90888
H         41.83664        10.36370         3.75727
H         41.97147        12.24402         3.39430
H         42.08519        14.64467         3.03313
H         42.32181        16.23405         1.95435
H         40.62963        19.61405        -0.07314
H         42.59483        18.35866         0.77740
