         276
 CSIRO Nanostructure Databank - Neutral Graphene Oxide Data Set
C        -10.92090         0.38281        -1.13556
C         -9.67909         1.09296        -1.65065
C         -8.43729         0.38695        -1.04842
C         -7.15475         1.19390        -0.90704
C         -6.23159         0.60185         0.16265
C         -5.08987         1.39522         0.78332
C         -3.82189         0.68818         1.05985
C         -2.53288         1.39670         0.94750
C         -1.23392         0.66235         1.14492
C         -0.03660         1.42141         1.60644
C          1.05389         0.69133         2.01155
C          2.46618         1.57002         0.20913
C          3.68010         0.77975         0.55662
C          4.95887         1.56029         0.26461
C          6.22417         0.78112         0.57725
C          7.53173         1.48338         0.68776
C          8.67543         0.82271        -0.02548
C          9.94157         1.59727        -0.24816
C         11.17372         0.78798        -0.41422
C         -9.62864         2.54786        -1.26889
C         -8.43228         3.35108        -1.67135
C         -7.41393         2.67688        -0.71755
C         -6.27106         3.54534        -0.11281
C         -5.08133         2.88297         0.54342
C         -3.79213         3.62046         0.67055
C         -2.56810         2.88748         1.19551
C         -1.32400         3.68685         1.55077
C         -0.01294         2.92760         1.68302
C          1.25534         3.66853         1.31589
C          2.41902         3.07572         0.49070
C          3.71445         3.71644         0.97568
C          5.01984         2.96562         0.86161
C          6.28212         3.76205         0.56253
C          7.62009         2.98873         1.04999
C          8.82597         3.72139         0.45602
C          9.97901         3.02309         0.12300
C         -8.44609         4.84221        -1.46815
C         -7.30588         5.55120        -1.11721
C         -6.16634         4.92700        -0.53804
C         -4.81908         5.57556        -0.77211
C         -3.60932         4.93256        -0.03779
C         -2.43909         5.74754         0.42456
C         -1.32692         5.13102         1.20426
C         -0.06956         5.88435         1.10098
C          1.25744         5.16936         1.14166
C          2.49210         5.82894         0.59005
C          3.72188         5.16733         0.83141
C          4.96997         6.01826         0.93173
C          6.30595         5.20124         1.14874
C          7.55168         5.88060         0.55031
C          8.76125         5.13943         0.43265
C         -7.22113         6.99316        -1.58170
C         -6.13350         7.80284        -0.90000
C         -4.88194         7.08711        -0.52326
C         -3.54317         7.81842        -0.58100
C         -2.62785         7.26725         0.53790
C         -1.30375         8.03183         0.54628
C         -0.08335         7.19203         0.36033
C          1.18103         7.84250        -0.10077
C          2.45807         7.12695         0.09479
C          3.66180         7.72183        -0.59142
C          4.97618         6.99192        -0.24757
C          6.25693         7.71783        -0.50149
C          7.50519         7.17428         0.04464
C         -6.03119         9.25126        -1.20185
C         -4.89826         9.95260        -0.97251
C         -3.65311         9.33600        -0.53020
C         -2.54892        10.08464        -0.26439
C         -1.26086         9.45715         0.12896
C          0.03939        10.02983        -0.31468
C          1.18623         9.31202        -0.36650
C          2.48733         9.98135        -0.80228
C          3.75615         9.24068        -0.30233
C          5.01485         9.80287        -0.94485
C          6.15956         9.10354        -1.02185
C        -10.94032        -0.94483        -0.96339
C         -9.69008        -1.74487        -1.26407
C         -8.48988        -0.93935        -0.79553
C         -7.31585        -1.67059        -0.26156
C         -6.10226        -0.88148         0.10279
C         -5.08227        -1.53612         0.97222
C         -3.85321        -0.74691         1.39334
C         -2.57362        -1.50370         1.80232
C         -1.25863        -0.80648         1.44414
C         -0.09773        -1.50529         1.61437
C          1.19552        -0.76900         1.73517
C          2.47791        -1.38260         1.16462
C          3.66390        -0.58860         0.66713
C          4.93954        -1.34220         0.49294
C          6.14304        -0.59308        -0.00574
C          7.37259        -1.29421        -0.46376
C          8.71467        -0.70625        -0.01924
C          9.83661        -1.27692        -0.92184
C         11.13601        -0.53226        -0.67194
C         -9.67833        -3.18619        -0.82705
C         -8.62054        -3.82231        -0.17385
C         -7.56401        -2.96234         0.50203
C         -6.26573        -3.69749         0.76055
C         -5.08891        -3.01946         0.87570
C         -3.77440        -3.68889         0.86783
C         -2.53026        -2.95437         1.26749
C         -1.34137        -3.80624         1.73244
C         -0.03653        -2.99590         1.71331
C          1.24907        -3.66339         1.28628
C          2.40626        -2.84380         0.74683
C          3.66229        -3.56823         0.34943
C          4.98760        -2.84839         0.40540
C          6.20283        -3.52435        -0.08445
C          7.31335        -2.78199        -0.82512
C          8.63185        -3.54628        -0.78046
C          9.97114        -2.80750        -0.73695
C         -8.63929        -5.20072         0.07399
C         -7.66701        -5.88937         0.98717
C         -6.33463        -5.14626         1.08537
C         -5.05267        -5.91595         1.11722
C         -3.79349        -5.18790         0.75367
C         -2.50894        -5.92256         0.79279
C         -1.24556        -5.15299         0.99477
C         -0.07990        -5.79834         0.75439
C          1.23524        -5.14017         0.96186
C          2.47629        -5.84547         0.50333
C          3.80482        -5.09376         0.41118
C          4.73492        -5.53485        -0.72992
C          6.05952        -4.86272        -0.69168
C          7.32281        -5.70193        -0.72866
C          8.58386        -4.88667        -0.95537
C         -7.49057        -7.30442         0.49896
C         -6.27817        -8.00390         0.52974
C         -5.07185        -7.37856         0.90063
C         -3.82407        -8.14129         1.08960
C         -2.51583        -7.39687         1.09179
C         -1.25452        -8.11255         0.69586
C         -0.03517        -7.27563         0.48403
C          1.01956        -7.77738        -0.48006
C          2.39587        -7.21618        -0.12698
C          3.51621        -7.78179        -0.91827
C          4.64094        -6.90235        -1.41918
C          5.95078        -7.65875        -1.53263
C          7.15611        -7.03486        -1.43752
C         -6.24078        -9.44063         0.23697
C         -5.12796       -10.18274         0.37039
C         -3.78163        -9.64936         0.80892
C         -2.73240        -9.96871        -0.29211
C         -1.35056        -9.41418        -0.01403
C         -0.22249        -9.99857        -0.50407
C          1.04794        -9.28960        -0.63989
C          2.15706        -9.87545        -1.16741
C          3.25694        -9.02366        -1.77255
C          4.59531        -9.70024        -2.00653
C          5.78686        -9.06040        -1.92977
O          5.23674        -2.14092         1.68881
O          0.77313         5.88216         2.30984
O          5.08479        -4.59782        -1.79968
O          0.93533        -3.46199         2.69601
O          2.24254        -1.31217         2.60747
O         -2.43896         5.05453        -0.90176
O          2.71859        -3.08545        -0.65664
O         -7.50940         3.16529         0.60802
O          1.64584         1.09908        -0.57431
O          0.95184         3.35584         2.69199
O         -3.11821        -7.78123         2.35511
O          6.93126         0.77365         1.83616
O         -4.77878         3.67784         1.74284
O          2.05610        -5.91074         1.90769
O          3.39328        -8.09505         0.49189
O         -4.96776        -1.06779         2.33951
O         -2.85996        -3.06446        -0.12807
O         -1.22550         9.05103         1.58128
O         -0.18034        -8.06327         1.69931
O         -6.17353        -1.57035        -1.19256
O         -1.70014         0.99609        -0.22850
O         -6.31177         1.02428         1.53382
O          7.81099         3.06817         2.40826
O          0.29087         7.07781        -1.04474
O          8.90842         1.38646        -1.34461
O         -5.65305        -5.43707         2.37267
O         -2.30654         3.25930         2.57155
O          4.39263         3.12226         2.14064
O          6.53260        -0.55013        -1.41183
O          5.69045         6.63137        -1.44122
O         -5.82418         7.48026         0.50094
O         -3.18719        -5.65564        -0.49120
O         -8.12054        -2.54806         1.77492
H         -8.33192        -3.35895         2.28767
O          6.95069        -2.86849        -2.22901
H          6.42966        -2.06091        -2.45221
O         -9.63900         0.91451        -3.07548
H         -8.99110         1.56106        -3.44076
O         -4.58097         5.39624        -2.20328
H         -3.61628         5.58437        -2.33974
O          7.43469        -6.09931         0.68513
H          8.32292        -6.49004         0.82433
O          4.80519         6.88906         2.06585
H          5.19601         6.41570         2.84171
O          0.68307        -7.20751        -1.77237
H          1.26165        -7.65016        -2.45081
O         -6.88857         6.96275        -2.98754
H         -6.06566         6.42212        -3.07161
O          2.69724        -8.64665        -3.06907
H          3.32087        -7.98931        -3.46865
O          2.10099         1.21892         2.68371
H          2.64544         0.46521         3.02336
O         -8.09562         3.12114        -3.05038
H         -7.34100         3.69715        -3.29274
O          9.45225        -1.07997        -2.29305
H          9.24400        -0.12043        -2.40760
O          3.84888         9.39616         1.12369
H          4.08787        10.32216         1.33209
O         -9.59054        -1.84969        -2.71754
H         -8.68486        -2.14987        -2.94096
O          6.38895         3.93241        -0.85283
H          6.21032         3.07362        -1.30819
O          2.51466        10.08838        -2.22703
H          2.64577         9.17417        -2.57919
O         10.63928        -3.10425         0.49195
H         10.15250        -2.64514         1.21459
O         -2.55655        -1.54999         3.23973
H         -3.49037        -1.54072         3.55391
O          4.27170        -6.63544        -2.80910
H          4.72179        -5.78807        -3.05722
O         -8.25301        -5.91302         2.33103
H         -7.50613        -6.05671         2.95709
O         -1.61918        -4.16606         3.09670
H         -0.75712        -4.30885         3.55008
O          4.55291        -5.39270         1.60202
H          3.91576        -5.64635         2.30954
O         -3.21030        -9.35223        -1.49711
H         -2.53321        -9.45622        -2.19689
O         -3.38742       -10.34659         2.00065
H         -3.06414        -9.67141         2.64347
O          3.43428         7.56879        -2.01363
H          4.24861         7.13926        -2.38232
O          4.99193         1.71011        -1.18770
H          4.13183         2.07422        -1.49293
O         -3.27937         7.46029         1.79557
H         -2.85691         8.23525         2.23558
O          2.22057         3.61921        -0.84730
H          1.56372         3.04241        -1.30369
O          6.46922         5.18272         2.56356
H          7.05014         4.39249         2.81162
O          8.92865        -1.14019         1.33950
H          8.28112        -0.66225         1.91656
O         -2.91005         7.50876        -1.84735
H         -3.28084         8.09879        -2.53619
O         -6.42835         1.07110        -2.15838
H         -6.29475         0.10692        -2.32434
H         12.07737        -1.09401        -0.76780
H         12.13821         1.29993        -0.27454
H         10.93683         3.55839         0.01960
H          9.62816         5.67478         0.00625
H          8.44538         7.68805        -0.21816
H          7.06457         9.55999        -1.45340
H          4.97791        10.83304        -1.33290
H          2.50543        11.02734        -0.39376
H          0.05932        11.10231        -0.56543
H         -2.60303        11.18371        -0.31542
H         -4.88350        11.03925        -1.14806
H         -6.92673         9.76180        -1.58633
H         -8.21522         7.49561        -1.48654
H         -9.18825         5.38353        -2.07809
H        -10.04471         2.80354        -0.27881
H        -11.82217         0.98507        -0.94650
H        -11.84736        -1.46547        -0.62248
H        -10.47753        -3.81744        -1.24771
H         -9.46863        -5.79853        -0.33428
H         -8.40528        -7.85856         0.23923
H         -7.18346        -9.91521        -0.07460
H         -5.17084       -11.26413         0.17047
H         -2.67151       -11.08413        -0.43262
H         -0.29178       -10.99618        -0.96804
H          2.16693       -10.95943        -1.36251
H          4.58049       -10.76008        -2.30603
H          6.70861        -9.62614        -2.14142
H          8.07366        -7.62072        -1.61710
H          9.52759        -5.45546        -1.01551
H         10.61966        -3.19820        -1.56248
