         640
 CSIRO Nanostructure Databank - Neutral Graphene Oxide Data Set
C         23.31324        27.24376         1.12724
C         23.23205        28.61346         0.85565
C         23.12531        31.56713         0.33449
C         23.08106        32.93535         0.08929
C         22.95302        35.88768        -0.19941
C         22.92363        37.25879        -0.33264
C         22.89719        40.21448        -0.58676
C         22.89507        41.58357        -0.73291
C         22.90179        44.53212        -1.04018
C         22.91047        45.90229        -1.11366
C         25.84012        24.82498         2.61429
C         24.61397        25.32868         2.12409
C         25.55306        27.57798         2.07352
C         24.46404        26.65834         1.71849
C         25.63210        28.84868         1.28853
C         24.34178        29.48618         0.95167
C         25.53967        31.66804         0.79424
C         24.33129        30.89090         0.69425
C         25.43908        33.17438         0.88357
C         24.20366        33.76657         0.25091
C         25.38846        35.93058         0.02696
C         24.17070        35.17971         0.02567
C         25.35471        37.33999        -0.16419
C         24.11634        38.03823        -0.30254
C         25.33316        40.20315        -0.38260
C         24.10561        39.47487        -0.42542
C         25.33329        41.64381        -0.54690
C         24.10383        42.34200        -0.74244
C         25.35566        44.44129        -1.08954
C         24.12260        43.76229        -0.97585
C         25.38321        45.86741        -1.57994
C         24.12720        46.63603        -1.25562
C         25.38890        48.72126        -1.41106
C         24.16792        48.02115        -1.27539
C         28.35930        23.50701         2.93810
C         28.31626        24.92586         2.87220
C         27.00312        25.58531         2.82466
C         27.92561        28.00738         2.76120
C         26.79485        27.05607         2.74387
C         28.07816        29.11497         2.00233
C         26.90759        29.62494         1.23235
C         27.98802        31.85767         1.06582
C         26.80151        31.08711         1.02353
C         27.96066        33.23129         0.67690
C         26.70935        33.89047         0.50415
C         27.87785        35.98417        -0.03017
C         26.65799        35.25398         0.16883
C         27.83961        37.37950        -0.19152
C         26.58399        38.07705        -0.19726
C         27.82489        40.20939        -0.12546
C         26.55191        39.48464        -0.25962
C         27.81333        41.70240        -0.25788
C         26.54654        42.38106        -0.55828
C         27.83358        44.49885        -0.81594
C         26.57286        43.76189        -0.86014
C         27.83981        45.93802        -1.03206
C         26.65641        46.62790        -1.27702
C         27.87923        48.80147        -1.51976
C         26.62776        48.06838        -1.40993
C         27.96405        50.18124        -1.63833
C         30.71530        23.38561         2.29627
C         29.51046        22.77118         2.71227
C         30.74035        24.80681         2.23429
C         29.59598        25.56133         2.65589
C         30.82292        27.68091         2.16542
C         29.82308        26.95991         2.81197
C         30.70094        29.10908         1.85254
C         29.38414        29.85456         1.96930
C         30.49569        31.87982         0.84272
C         29.29598        31.24767         1.41032
C         30.43661        33.20599         0.42006
C         29.18159        33.92252         0.40945
C         30.34638        35.95402        -0.32943
C         29.14987        35.28886         0.01146
C         30.29615        37.36093        -0.87339
C         29.06628        38.11635        -0.42740
C         30.26986        40.24177        -0.92926
C         29.07298        39.48048        -0.41783
C         30.28187        41.71470        -0.58378
C         29.08604        42.40955        -0.50477
C         30.27971        44.60266        -0.22063
C         29.03163        43.84235        -0.56840
C         30.30931        45.99740        -0.78593
C         29.11710        46.62888        -1.08340
C         30.46577        48.79506        -1.49087
C         29.12809        48.02471        -1.55587
C         30.42177        50.26409        -1.42702
C         29.19519        50.88805        -1.59780
C         33.11941        20.50207         2.08973
C         31.98477        21.22830         2.25827
C         33.05116        23.32004         1.51443
C         31.90742        22.64135         1.96582
C         33.09753        24.75106         1.45308
C         31.92841        25.48918         1.81136
C         33.12316        27.57425         1.28847
C         31.94968        26.91219         1.69829
C         33.10605        29.04752         1.29577
C         31.79264        29.74398         1.31675
C         32.97325        31.81235         0.36011
C         31.68934        31.02683         0.52210
C         32.89816        33.19421         0.03143
C         31.64655        33.89310         0.03683
C         32.82357        36.00009        -0.47631
C         31.59365        35.27558        -0.27577
C         32.80888        37.42180        -0.57506
C         31.57425        38.13632        -0.63045
C         32.78784        40.26805        -0.62107
C         31.56776        39.52440        -0.66022
C         32.77793        41.69717        -0.59284
C         31.54122        42.42812        -0.57117
C         32.77346        44.55240        -0.37265
C         31.55204        43.82821        -0.46243
C         32.75364        45.97333        -0.38443
C         31.57469        46.69703        -0.74841
C         32.86799        48.82840        -0.81525
C         31.64790        48.08778        -0.98280
C         32.88013        50.26699        -0.96255
C         31.67154        50.97925        -1.20965
C         32.91792        53.07605        -1.09874
C         31.72427        52.39007        -1.26057
C         35.73287        19.10890         1.95900
C         35.61223        20.42044         1.48111
C         34.27780        21.05432         1.37935
C         35.50578        23.26828         0.87213
C         34.23171        22.55947         1.08036
C         35.49458        24.67891         0.76735
C         34.28710        25.42805         1.04301
C         35.48834        27.55403         0.51939
C         34.30498        26.85663         0.96636
C         35.48039        28.96099         0.32348
C         34.32217        29.75686         0.77463
C         35.37724        31.79968        -0.17849
C         34.20362        31.14801         0.29010
C         35.33721        33.19953        -0.40324
C         34.10015        33.89757        -0.27923
C         35.28963        36.02037        -0.64520
C         34.06147        35.30832        -0.47767
C         35.27824        37.43712        -0.67135
C         34.03634        38.14199        -0.61180
C         35.26723        40.27609        -0.60303
C         34.02633        39.56332        -0.61784
C         35.25276        41.69727        -0.48961
C         34.01119        42.40506        -0.48054
C         35.25163        44.49605        -0.18231
C         34.01459        43.82309        -0.34632
C         35.28204        45.96046        -0.01646
C         33.99077        46.72466        -0.16099
C         35.31631        48.83792        -0.43379
C         34.05666        48.15212        -0.50574
C         35.33255        50.26277        -0.53016
C         34.11014        50.97421        -0.77826
C         35.39094        53.10930        -0.71285
C         34.13267        52.39696        -0.86316
C         35.45854        54.50977        -0.83972
C         38.13878        19.13529         1.58916
C         36.97077        18.48199         2.02190
C         38.04365        20.47017         1.09686
C         36.77525        21.12763         1.07136
C         37.90890        23.22380         0.38164
C         36.71048        22.53396         0.73752
C         37.87967        24.62703         0.18876
C         36.69760        25.35530         0.40448
C         37.77466        27.43012        -0.36710
C         36.68090        26.80156         0.20417
C         37.70178        28.84284        -0.73892
C         36.56589        29.63988        -0.26685
C         37.75237        31.74490        -0.90705
C         36.58534        31.05959        -0.45192
C         37.75822        33.17828        -0.97330
C         36.54316        33.89831        -0.71584
C         37.74354        36.03764        -0.94872
C         36.52381        35.31475        -0.76703
C         37.72759        37.43979        -0.92170
C         36.50992        38.14990        -0.76314
C         37.73948        40.29382        -0.55944
C         36.50077        39.57848        -0.67547
C         37.72442        41.67962        -0.30859
C         36.48062        42.39674        -0.31606
C         37.69692        44.50720         0.36312
C         36.46462        43.80040        -0.14268
C         37.78000        45.95781        -0.01499
C         36.54225        46.64177        -0.50610
C         37.76875        48.80845        -0.14537
C         36.53595        48.12878        -0.29708
C         37.77987        50.23691        -0.16043
C         36.56966        50.95780        -0.38205
C         37.83826        53.08411        -0.30854
C         36.59503        52.38896        -0.46034
C         37.86419        54.50053        -0.46051
C         36.67656        55.18132        -0.74039
C         40.76944        16.49736         2.17204
C         39.55546        17.16162         2.17894
C         40.56770        19.09756         1.07915
C         39.42473        18.45780         1.62554
C         40.48230        20.43554         0.56207
C         39.21820        21.14725         0.60933
C         40.29106        23.17386        -0.35903
C         39.13687        22.49409         0.21340
C         40.28868        24.51942        -0.60705
C         39.16644        25.37932        -0.06083
C         40.21754        27.43000        -1.08796
C         38.93368        26.62869        -0.91212
C         40.22764        28.77609        -1.21469
C         38.96473        29.55371        -1.16042
C         40.17597        31.68926        -1.42975
C         39.00272        31.03598        -1.13214
C         40.15043        33.15039        -1.82796
C         38.94818        33.89414        -1.28191
C         40.20429        36.03079        -1.22409
C         38.97629        35.30830        -1.18706
C         40.24330        37.43583        -1.07425
C         38.97032        38.21702        -1.26835
C         40.18780        40.23896        -0.40737
C         38.98822        39.59729        -0.66942
C         40.19345        41.65009        -0.10749
C         38.96448        42.38207        -0.11379
C         40.20044        44.47314         0.24380
C         38.98099        43.77295         0.09695
C         40.21189        45.90480         0.33220
C         38.97560        46.63784         0.11469
C         40.20839        48.77616         0.29039
C         38.99786        48.08203         0.03367
C         40.20046        50.19329         0.34053
C         39.01646        50.93269         0.05642
C         40.27002        53.07762         0.24799
C         39.03747        52.35561        -0.01951
C         40.29727        54.46371         0.15246
C         39.19074        55.22713        -0.51917
C         40.28609        57.34759         0.21727
C         39.14656        56.67794        -0.10056
C         43.15381        16.39396         1.54486
C         41.90727        17.08802         1.58221
C         42.95199        18.99008         0.40188
C         41.81438        18.39922         1.02107
C         42.86140        20.33034        -0.11982
C         41.62083        21.03343         0.00096
C         42.70871        22.99536        -1.25593
C         41.48642        22.34536        -0.66958
C         42.65961        24.46060        -1.71092
C         41.56837        25.26127        -0.95807
C         42.72113        27.37891        -1.55620
C         41.39129        26.64277        -1.63832
C         42.71201        28.73450        -1.68965
C         41.40790        29.49347        -1.84833
C         42.62863        31.72979        -2.11462
C         41.51726        30.95708        -1.36097
C         42.64841        33.16034        -1.63354
C         41.46865        33.83267        -1.52607
C         42.72660        35.99012        -1.09319
C         41.47712        35.33440        -1.61374
C         42.71860        37.39760        -0.90586
C         41.46189        38.12626        -0.92399
C         42.64262        40.18774        -0.27700
C         41.46404        39.53367        -0.56121
C         42.61210        41.49792         0.46878
C         41.39777        42.32794         0.16038
C         42.66425        44.42847         0.52403
C         41.42639        43.73241         0.30511
C         42.66721        45.84665         0.61511
C         41.43253        46.59784         0.48745
C         42.67404        48.73072         0.62578
C         41.44217        48.03122         0.50352
C         42.69445        50.15560         0.65945
C         41.40330        50.89589         0.91638
C         42.71498        53.03339         0.64150
C         41.46925        52.36151         0.59379
C         42.75219        54.45534         0.63587
C         41.45068        55.19653         0.76528
C         42.75428        57.30502         0.49223
C         41.52689        56.65562         0.41567
C         44.24916        16.96089         0.95221
C         45.31957        18.82027        -0.28866
C         44.18457        18.25730         0.34195
C         45.20803        20.12614        -1.02838
C         44.00849        20.95758        -0.67141
C         45.21022        23.01310        -1.33135
C         44.01694        22.32694        -1.07447
C         45.21972        24.43243        -1.87158
C         43.96770        25.21810        -1.57963
C         45.23200        27.33528        -1.59150
C         43.97662        26.60844        -1.56754
C         45.24825        28.75776        -1.63130
C         43.97685        29.47040        -1.88617
C         45.22322        31.67149        -1.61253
C         43.97650        30.98048        -2.02041
C         45.20594        33.06142        -1.34980
C         43.89470        33.73988        -1.00934
C         45.14501        35.95712        -0.91885
C         43.92966        35.26143        -1.03493
C         45.16057        37.37325        -0.72041
C         43.93439        38.07843        -0.68162
C         45.15727        40.17348         0.02949
C         43.96093        39.58630        -0.67967
C         45.10410        41.50136         0.47718
C         43.90349        42.26594         0.44768
C         45.11096        44.39788         0.82902
C         43.89396        43.67776         0.61348
C         45.10776        45.79376         0.93663
C         43.89836        46.54191         0.80278
C         45.13013        48.67333         0.76999
C         43.91503        47.98607         0.76858
C         45.15908        50.10797         0.45774
C         43.90546        50.87019         0.60516
C         45.20106        53.00155         0.77340
C         43.95241        52.28910         0.66100
C         45.20574        54.42736         0.87650
C         43.96514        55.16989         0.74237
C         43.94449        56.59039         0.69062
C         47.69959        18.78315        -0.81781
C         46.56064        18.14561        -0.37310
C         47.71370        20.19693        -1.06870
C         46.49636        20.91052        -1.05187
C         47.69822        23.03240        -1.34390
C         46.47166        22.31691        -1.24159
C         47.69604        24.47655        -1.41662
C         46.48464        25.18446        -1.53027
C         47.71163        27.31160        -1.52320
C         46.48137        26.60455        -1.54348
C         47.73389        28.77312        -1.90642
C         46.44139        29.50206        -1.65708
C         47.67815        31.64128        -1.33613
C         46.44321        30.93681        -1.57124
C         47.65771        33.04907        -1.13306
C         46.41412        33.74186        -1.13402
C         47.59329        35.89528        -0.48177
C         46.43895        35.25148        -1.26741
C         47.69469        37.39978        -0.76165
C         46.38998        38.09636        -0.48130
C         47.63118        40.04728         0.39621
C         46.39024        39.42863        -0.02570
C         47.58987        41.36116         1.04054
C         46.30740        42.13375         1.05626
C         47.65613        44.34154         1.16989
C         46.34009        43.64461         1.17394
C         47.65455        45.77370         1.20350
C         46.36772        46.48237         1.29462
C         47.67114        48.70297         1.04931
C         46.37177        48.00772         1.16600
C         47.69615        50.10311         0.95801
C         46.47941        50.85737         0.60679
C         47.65116        52.98401         1.13925
C         46.44009        52.30424         0.85976
C         47.60951        54.39215         1.29026
C         46.42523        55.08931         1.13709
C         50.19048        20.21919        -1.33461
C         48.94628        20.90405        -1.24509
C         50.17579        23.04460        -1.35302
C         48.93439        22.32809        -1.31978
C         50.17582        24.47497        -1.33997
C         48.93537        25.18560        -1.36228
C         50.18896        27.32680        -1.37231
C         48.93610        26.61065        -1.42401
C         50.15962        28.77182        -1.35683
C         48.97696        29.49901        -1.45956
C         50.12897        31.65988        -1.10349
C         48.94008        30.93590        -1.31711
C         50.13202        33.06857        -0.87879
C         48.89513        33.77971        -0.89859
C         50.11643        35.87701        -0.46877
C         48.90817        35.17534        -0.67621
C         50.11451        37.30430        -0.18545
C         48.91329        38.02120        -0.12743
C         50.13201        40.09188         0.48730
C         48.87661        39.38626         0.28132
C         50.14479        41.47167         0.77666
C         48.90560        42.14948         1.17673
C         50.15681        44.34084         1.40442
C         48.84872        43.62812         1.18399
C         50.11192        45.82132         1.13495
C         48.87916        46.51131         1.18822
C         50.11363        48.66929         1.20103
C         48.87696        47.96052         1.16064
C         50.13007        50.09677         1.25981
C         48.91025        50.82392         1.15240
C         50.13944        52.91472         1.41865
C         48.90408        52.25189         1.22923
C         51.37527        20.90736        -1.40422
C         52.64476        23.05061        -1.31706
C         51.40368        22.33164        -1.35876
C         52.63619        24.45761        -1.34310
C         51.41043        25.18522        -1.33758
C         52.67554        27.32841        -1.14906
C         51.41444        26.62594        -1.31767
C         52.68278        28.73591        -0.98199
C         51.44767        29.47778        -1.31230
C         52.62525        31.66064        -0.67275
C         51.42792        30.97962        -1.18615
C         52.60534        33.03071        -0.50759
C         51.36030        33.76570        -0.65375
C         52.59891        35.88141        -0.28415
C         51.35438        35.16615        -0.46350
C         52.59080        37.27303        -0.16663
C         51.36311        38.00168        -0.02527
C         52.62288        40.10580         0.38480
C         51.36327        39.39532         0.24019
C         52.62328        41.53975         0.55568
C         51.35853        42.24800         0.67866
C         52.54565        44.42083         0.35817
C         51.33988        43.62941         0.79153
C         52.57700        45.84768         0.84186
C         51.34452        46.53108         1.03873
C         52.58182        48.66693         1.14078
C         51.34553        47.95591         1.14864
C         52.59620        50.08013         1.37527
C         51.36911        50.80085         1.40478
C         51.33127        52.21924         1.50101
C         55.07093        22.96672        -0.91980
C         53.88142        22.33900        -1.08071
C         55.20845        24.40557        -1.17097
C         53.91515        25.18949        -1.38812
C         55.12075        27.31214        -0.82284
C         53.91360        26.63544        -1.09354
C         55.09477        28.72520        -0.56423
C         53.85702        29.42006        -0.64726
C         55.07432        31.59028        -0.12848
C         53.77134        30.84182        -0.14230
C         55.06908        32.99024        -0.05776
C         53.83873        33.74375        -0.21317
C         55.09210        35.85679         0.01618
C         53.84579        35.14020        -0.18657
C         55.11548        37.25101         0.01564
C         53.87685        38.03685        -0.35388
C         55.08170        40.03338         0.62714
C         53.82466        39.40924         0.26297
C         55.09058        41.56573         0.82819
C         53.82189        42.26940         0.63260
C         55.05506        44.40623         0.56030
C         53.85196        43.69561         0.57039
C         55.06389        45.85640         0.58346
C         53.79663        46.56201         0.78363
C         55.02261        48.78312         0.59583
C         53.79659        47.96681         0.92494
C         55.03703        50.07409         1.37346
C         53.87113        50.70853         1.64156
C         57.55741        24.44632        -0.31594
C         56.39027        25.14583        -0.67602
C         57.54007        27.25152        -0.24833
C         56.36237        26.56477        -0.61840
C         57.61917        28.74561        -0.41308
C         56.29466        29.44518        -0.26052
C         57.51727        31.53762         0.26275
C         56.29088        30.84127        -0.04407
C         57.51427        32.95537         0.38590
C         56.30163        33.69956         0.17231
C         57.54998        35.80672         0.44141
C         56.31317        35.10970         0.22565
C         57.59953        37.22602         0.36469
C         56.35326        37.96520         0.19751
C         57.62233        40.09059         0.66842
C         56.34909        39.34197         0.35826
C         57.57120        41.55392         0.18750
C         56.33763        42.29781         0.62993
C         57.56570        44.38898         0.39613
C         56.32451        43.68786         0.51260
C         57.54411        45.86340         0.10950
C         56.26387        46.56153         0.51817
C         57.52303        48.65644         0.67001
C         56.31005        47.99562         0.63287
C         58.69500        25.12181         0.09362
C         59.87748        27.23623         0.55822
C         58.70585        26.53353         0.11652
C         59.86996        28.60784         0.70721
C         58.74422        29.38907         0.35783
C         59.87027        31.51237         0.97090
C         58.71737        30.80134         0.52876
C         59.87422        32.88411         1.04502
C         58.71720        33.64131         0.72197
C         59.95033        35.79697         0.91321
C         58.74867        35.08118         0.70897
C         59.99209        37.17709         0.78476
C         58.82775        37.90620         0.49998
C         60.08519        40.15913         0.52040
C         58.86486        39.37257         0.11111
C         60.04700        41.51778         0.64488
C         58.84783        42.28975         0.50168
C         60.03182        44.47988         0.61930
C         58.81085        43.70266         0.49890
C         60.01713        45.84123         0.67340
C         58.79396        46.58368         0.56005
C         58.76003        47.94919         0.71683
O         43.62175        33.26611         0.32195
O         46.24130        47.33624         2.48044
O         46.08472        42.78498         2.34318
O         44.10894        30.13887        -3.21070
O         41.79721        22.20589        -2.11647
O         34.65372        46.46966         1.17214
O         26.52723        28.76215         0.09916
O         45.95442        50.47261        -0.72693
O         28.95005        27.66151         3.64469
O         33.96010        21.55546         0.04206
O         48.28238        41.45414         2.32031
O         29.44752        30.98077         2.89989
O         38.01826        29.06789        -2.18911
O         29.94478        48.23941        -2.75018
O         54.78145        24.81821        -2.51400
O         51.65965        30.33185        -2.50597
O         55.08560        40.64626         1.98724
O         27.85651        41.06418         1.08849
O         25.69522        27.65161         3.53604
O         34.09096        29.64187         2.23588
O         57.55777        45.96700        -1.37488
H         57.49341        46.92318        -1.58991
O         39.55118        55.24226        -1.95657
H         38.78412        55.60953        -2.44550
O         30.21680        44.78316         1.24622
H         30.14883        43.89048         1.64832
O         50.40949        44.24303         2.86986
H         50.06090        43.37600         3.17347
O         41.10436        29.50136        -3.26743
H         40.99243        28.55454        -3.53128
O         47.94783        37.59787        -2.20321
H         47.90834        38.56143        -2.38204
O         41.06037        26.57443        -3.05289
H         41.63768        25.88653        -3.47191
O         47.83754        28.75272        -3.38678
H         48.72931        28.41147        -3.61425
O         53.97954        38.26986        -1.81363
H         54.01873        37.39058        -2.24753
O         30.11858        40.19428        -2.41023
H         30.86674        40.70101        -2.79457
O         37.55235        44.50094         1.83705
H         37.51922        43.56348         2.12415
O         58.85182        39.32900        -1.33980
H         58.49800        40.19098        -1.67043
O         39.97388        33.18629        -3.29486
H         40.70652        32.61706        -3.66275
O         41.21177        50.83346         2.39117
H         41.15814        49.88417         2.63520
O         36.50414        46.42487        -1.97062
H         37.30665        46.83958        -2.35330
O         46.60106        35.41773        -2.70168
H         46.98151        36.31357        -2.87469
O         39.62132        25.87760         1.24913
H         39.53686        25.14411         1.89503
O         38.89142        38.44833        -2.72705
H         39.00756        37.57853        -3.16674
O         42.28549        31.83076        -3.51633
H         42.52493        30.96400        -3.92948
O         42.16932        25.53525         0.34276
H         41.46058        25.93631         0.90693
O         38.52847        26.18596        -2.22883
H         38.39394        26.99649        -2.77152
O         41.16414        55.18866         2.23410
H         41.96463        55.54072         2.68014
O         53.42374        30.66038         1.29974
H         53.49690        31.54064         1.72862
O         41.50064        35.57646        -3.08484
H         40.92112        34.87549        -3.48190
O         57.77041        40.10419         2.10801
H         56.88972        40.35059         2.48607
O         31.40545        30.52911        -0.85832
H         31.37266        31.31140        -1.45109
O         41.92495        30.93063         0.02610
H         42.42086        31.77823         0.23422
O         42.45530        41.09451         1.88940
H         42.70644        41.86304         2.44586
O         57.99254        28.95178        -1.84247
H         58.82381        28.45290        -1.99496
O         44.97733        19.73401        -2.44987
H         44.87419        20.56576        -2.96133
O         30.18514        37.24833        -2.33325
H         30.11034        38.17307        -2.67433
O         54.86566        49.16692        -0.82632
H         54.03805        49.69061        -0.89125
O         57.43275        41.54577        -1.28724
H         57.50616        42.47725        -1.59076
O         47.26275        35.78609         0.92542
H         47.02875        34.85363         1.11886
O         45.23957        24.28772        -3.34552
H         44.29906        24.21194        -3.63814
O         25.37697        45.75043        -3.05884
H         25.37070        46.66375        -3.41794
O         25.27120        33.44888         2.34017
H         24.45067        32.99165         2.62455
O         42.41123        24.38395        -3.14761
H         41.84510        23.57931        -3.27968
O         44.14323        39.97709        -2.10333
H         43.46083        39.50175        -2.62547
O         52.40392        44.53605        -1.11592
H         53.20923        44.98763        -1.44984
H         22.43266        26.61165         0.94083
H         22.26577        29.00926         0.51072
H         22.20402        30.98350         0.20542
H         22.13222        33.36547        -0.26245
H         22.00258        35.33693        -0.22146
H         21.95044        37.75146        -0.46197
H         21.93450        39.68597        -0.60858
H         21.93117        42.09148        -0.87129
H         21.93643        44.01832        -0.93914
H         21.96406        46.46008        -1.04803
H         25.87777        23.73514         2.74551
H         23.78854        24.61907         1.96664
H         25.35023        49.81756        -1.46657
H         23.23439        48.59414        -1.17220
H         27.45246        22.94429         3.19353
H         27.04556        50.78314        -1.68437
H         29.45050        21.67881         2.80548
H         29.13770        51.98525        -1.61822
H         33.16413        19.48036         2.49124
H         31.13063        20.74901         2.75534
H         32.89853        54.17208        -1.15919
H         30.80851        52.96722        -1.44537
H         34.84275        18.54894         2.27376
H         34.55497        55.09807        -1.04426
H         37.01126        17.45044         2.39278
H         36.68230        56.27035        -0.88733
H         40.85167        15.49392         2.61340
H         38.68973        16.66211         2.63216
H         40.26845        58.44305         0.33464
H         38.21353        57.24548        -0.22710
H         43.21911        15.39241         1.99370
H         42.80043        58.39506         0.34988
H         45.19156        16.39850         0.93488
H         44.88466        57.15463         0.73561
H         48.63426        18.21012        -0.86449
H         46.64557        17.09892        -0.05064
H         48.52485        54.95490         1.51330
H         46.44589        56.18158         1.24545
H         50.21594        19.12233        -1.35911
H         50.17209        54.01002         1.48625
H         52.30901        20.33800        -1.49286
H         52.26674        52.78234         1.61968
H         55.94272        22.38448        -0.59182
H         53.84215        21.25555        -0.90869
H         55.99091        50.56280         1.61614
H         53.88807        51.69924         2.11847
H         57.58275        23.35023        -0.36985
H         57.55400        49.75250         0.73146
H         59.60016        24.56722         0.37792
H         60.76521        26.65478         0.84403
H         60.75853        29.08799         1.13921
H         60.79173        30.96981         1.21773
H         60.79641        33.39075         1.35692
H         60.88489        35.26319         1.12863
H         60.95588        37.69153         0.89711
H         61.05569        39.65086         0.61775
H         60.98572        42.04243         0.87702
H         60.99138        43.95395         0.70714
H         60.95338        46.39793         0.83017
H         59.68768        48.50464         0.91922
