         278
 CSIRO Nanostructure Databank - Neutral Graphene Oxide Data Set
C        -11.20122         0.61043         0.66228
C         -9.97614         1.41616         0.66336
C         -8.75539         0.67161         0.50501
C         -7.52396         1.16101         0.94102
C         -6.30709         0.57036         0.27390
C         -5.01019         1.35906         0.53629
C         -3.80585         0.60173        -0.05090
C         -2.49114         1.28465         0.28228
C         -1.22730         0.52219        -0.23065
C         -0.00730         1.34083         0.22444
C          1.28403         0.59633         0.27383
C          2.58617         1.35250         0.33515
C          3.86622         0.60907         0.02328
C          5.06788         1.45381        -0.34861
C          6.31338         0.76287        -0.82089
C          7.66272         1.50934        -1.02934
C          8.91204         0.76127        -0.50750
C         10.05657         1.51606         0.20077
C         10.25279         0.88110         1.57666
C         -9.97958         2.81719         0.71703
C         -8.84326         3.65661         0.35336
C         -7.79966         3.07205        -0.57191
C         -6.37453         3.58354        -0.27865
C         -5.09625         2.84501         0.03233
C         -3.82149         3.48270        -0.48048
C         -2.46254         2.72718        -0.36817
C         -1.32607         3.55030         0.29517
C          0.04101         2.85615        -0.09627
C          1.24501         3.59035         0.48982
C          2.56213         2.84418         0.43408
C          3.80839         3.59723         0.07926
C          5.13202         2.84747         0.28483
C          6.31579         3.68215        -0.19138
C          7.58493         3.00027        -0.61845
C          8.82982         3.70760        -0.22351
C          9.88396         3.01955         0.25423
C         -8.65130         4.99308         0.62633
C         -7.55661         5.78759        -0.03310
C         -6.40095         5.03974        -0.67604
C         -5.12045         5.75726        -1.04141
C         -3.81631         4.95821        -0.82330
C         -2.54336         5.74470        -0.65438
C         -1.37666         5.06472        -0.01236
C         -0.08552         5.82551         0.10777
C          1.22080         5.09138         0.38792
C          2.49218         5.84245         0.20955
C          3.77694         5.08398         0.12419
C          5.04189         5.81597         0.42555
C          6.36400         5.09923         0.33604
C          7.56691         5.93098         0.06259
C          8.85753         5.22856        -0.35010
C         -7.29899         7.20125         0.34764
C         -6.12514         7.88288         0.06288
C         -5.02692         7.17213        -0.56341
C         -3.84932         7.78160        -0.95287
C         -2.55589         7.13256        -0.78446
C         -1.31564         8.00133        -0.61548
C         -0.03066         7.26712        -0.36125
C          1.30189         7.61385        -0.97334
C          2.49995         7.15241        -0.18324
C          3.75602         7.93064        -0.26502
C          4.98744         7.31026         0.33268
C          6.27727         8.07810         0.32691
C          7.51959         7.29004         0.12080
C         -5.89144         9.20029         0.68925
C         -4.79345        10.01941         0.69626
C         -3.62606         9.85925        -0.16774
C         -2.30990        10.18197        -0.08651
C         -1.33908         9.48692        -1.08038
C          0.01889        10.21637        -1.06336
C          1.19526         9.94764        -0.51470
C          2.41739        10.14406        -0.01201
C          3.70622         9.44662        -0.33420
C          5.00054        10.16400        -0.10582
C          6.18787         9.52965        -0.00346
C        -11.23881        -0.71151         0.36280
C        -10.02644        -1.53316        -0.05742
C         -8.78861        -0.82724         0.45236
C         -7.53264        -1.59514         0.68456
C         -6.15511        -0.92759         0.70451
C         -5.16903        -1.66193        -0.24961
C         -3.81606        -0.88232        -0.28851
C         -2.48923        -1.63704        -0.27628
C         -1.24956        -0.94327         0.32683
C          0.07814        -1.62168        -0.07775
C          1.25475        -0.74616        -0.41261
C          2.51739        -1.43431        -0.80765
C          3.82176        -0.81811        -0.41651
C          5.08041        -1.53637        -0.77646
C          6.31429        -0.72154        -0.54561
C          7.58008        -1.42470        -0.22943
C          8.90536        -0.72453        -0.30521
C         10.07012        -1.37943         0.54826
C         10.22123        -0.44887         1.75673
C        -10.08522        -3.02273         0.42874
C         -8.76879        -3.80062         0.30668
C         -7.52249        -3.10289         0.70878
C         -6.23227        -3.85265         0.72773
C         -5.04922        -3.16676         0.08036
C         -3.76187        -3.89985        -0.10229
C         -2.46549        -3.13096        -0.30397
C         -1.15695        -3.90002         0.01363
C          0.12634        -3.08897        -0.36713
C          1.25220        -3.67040        -1.21720
C          2.59707        -2.88090        -1.32352
C          3.76357        -3.68835        -0.69036
C          5.08582        -2.90144        -0.82262
C          6.35634        -3.67521        -0.65164
C          7.57729        -2.92437        -0.21144
C          8.46797        -3.47566         0.93095
C          9.80787        -2.83294         0.77938
C         -8.68171        -5.07444        -0.17934
C         -7.48437        -5.92396        -0.10644
C         -6.32243        -5.40555         0.77685
C         -4.96485        -6.10994         0.50060
C         -3.64044        -5.30832         0.46504
C         -2.58744        -5.98498        -0.43037
C         -1.27829        -5.23905        -0.69113
C         -0.07961        -5.92989        -1.28616
C          1.24566        -5.16218        -1.44467
C          2.55512        -5.91981        -1.44577
C          3.88631        -5.08750        -1.36668
C          5.00784        -5.87338        -0.65143
C          6.24929        -5.13141        -0.27509
C          7.16722        -5.66136         0.77774
C          8.54053        -5.01890         0.87813
C         -7.48831        -7.23596        -0.49289
C         -6.46117        -8.20622         0.08802
C         -5.06739        -7.54527         0.08155
C         -3.95736        -8.18925        -0.68706
C         -2.69145        -7.40245        -0.88558
C         -1.43098        -8.17180        -1.22679
C         -0.11455        -7.44274        -1.41505
C          1.18461        -8.18419        -1.15291
C          2.50835        -7.41325        -1.19015
C          3.77676        -8.14912        -0.61660
C          4.65588        -7.10078         0.13747
C          5.61334        -7.56960         1.18475
C          6.85945        -6.80102         1.43429
C         -6.39996        -9.64417        -0.40194
C         -5.26211       -10.34731        -0.57224
C         -3.95958        -9.67309        -0.84888
C         -2.62025       -10.29412        -0.67558
C         -1.45894        -9.59284        -0.74781
C         -0.21485       -10.18071        -0.10805
C          1.11386        -9.53315        -0.49087
C          2.28459        -9.97438         0.30535
C          3.46277        -9.30680         0.33429
C          4.55035        -9.78762         1.18267
C          5.57554        -8.99735         1.56464
O         -6.78296        -5.79501         2.03221
O         -4.69171        -7.20682         1.44809
O         -3.92691         3.93099        -1.86491
O          3.77224         4.33965        -1.16496
O          5.49425         7.88414         1.57296
O          1.00326        -4.20699        -2.53291
O          5.36794         2.63364         1.68558
H          4.53487         2.28158         2.08994
O         -0.63660         8.06969         0.69289
O         -1.10905         0.33154        -1.64430
H         -2.00229         0.12836        -2.01434
O         -3.95867         9.11462        -1.31538
O          7.53378        -3.48341        -1.53459
O         -1.04827        -5.23106        -2.10841
O          1.74217        -0.61931        -1.76410
O          0.49691         0.82186         1.48749
O          1.12459         4.38006         1.68717
O          1.31383        -9.41367        -1.92651
O          0.63710        -2.56042         0.90452
O          3.51181        -3.92610         0.70209
H          3.40946        -3.07317         1.17661
O         -8.39240        -1.23232         1.83580
O          2.75295         2.03113         1.63298
O         -3.11431        -6.30715        -1.75152
O         -4.22716        -8.78037        -1.99540
O         -3.22765        -5.19281         1.82571
H         -3.53164        -5.99951         2.30195
O          3.85429         8.64012        -1.53908
O         -0.41068       -10.02976         1.31120
H          0.28768       -10.52860         1.78241
O         -2.42253         1.22449         1.69511
H         -1.67042         1.75543         2.04175
O         -5.16101         5.91198        -2.49479
H         -6.10228         6.07578        -2.73497
O          9.36789        -0.18102        -1.54287
O         -5.78266         3.61742         1.07429
O         -6.78104        -3.37708         1.98528
O         -7.42078         2.04100         1.94282
H         -8.31194         2.23819         2.30401
O         -1.43819         3.45366         1.71635
H         -0.90965         4.19964         2.10348
O         -0.99964         5.76835         1.22828
O          0.34567         2.96340        -1.49709
H         -0.28744         2.38799        -1.99886
O         -6.60987         0.65198        -1.11991
H         -5.89565         0.21204        -1.64506
O         -2.31193        -2.36052        -1.52724
O          7.85868         1.53774        -2.45311
H          7.08492         2.00882        -2.83874
O          6.20085        -6.01373        -1.45908
O          5.33370         1.27039        -1.77077
O          4.32540        -6.85122         1.51127
O          2.69184        -6.88377        -2.52957
O         -1.06369        -4.19444         1.40181
H         -0.91317        -3.35287         1.89101
O         -0.86911        -7.94169        -2.55049
O          6.71055         3.68941        -1.58266
O         -3.87699         0.10081        -1.40378
O          7.80682        -3.12136         2.16117
H          7.42765        -2.21504         2.09382
O          4.30139        -4.85625        -2.70614
H          4.32171        -5.72790        -3.16221
O          3.98530        -0.45876         1.01905
O         -7.50351         5.47940        -1.49870
O         -8.07994         2.56823        -1.63734
O          1.42458         7.83947        -2.16573
O          5.72039         5.31909         1.61879
O          4.55804        -8.62214        -1.64398
O         -4.71749        -3.86953        -1.18354
O         -1.40740        -1.08321         1.73672
H         -0.73237        -0.51799         2.18009
O         -1.79974         9.52769        -2.42671
H         -2.10883        10.43043        -2.64127
O        -10.47750        -3.04324         1.80116
H         -9.75453        -2.61669         2.31837
O         -6.89267        -8.39575         1.45384
H         -6.84520        -7.50382         1.91060
O          6.77701        -0.88890         0.88041
O         -5.62317        -0.98493         2.02266
H         -6.02775        -1.76508         2.47989
O          9.30552        -5.40221        -0.26473
H          8.77723        -5.21523        -1.07375
O         -5.73810        -1.64005        -1.56636
H         -5.22722        -2.28395        -2.11338
O         -9.97631        -1.57848        -1.49986
H         -9.89501        -0.66177        -1.83881
O         -4.79955         1.43078         1.93978
H         -5.38127         2.13230         2.30575
O          2.93878        -2.69656        -2.69709
H          2.44275        -3.36180        -3.23295
O         -2.07513         2.47372        -1.72369
H         -2.53537         3.11134        -2.32463
O          9.96217         5.78115         0.35900
H          9.75388         5.78104         1.31552
O         11.27846         1.30840        -0.55736
H         11.05600         1.39832        -1.50949
O         11.29064        -1.34457        -0.18368
H         11.53451        -0.39767        -0.35447
H         10.38385        -0.88294         2.75446
H         10.43173         1.54741         2.43453
H         10.77183         3.58561         0.57902
H          9.03198         5.44813        -1.44001
H          8.43701         7.85317        -0.11422
H          7.11982        10.11531         0.01567
H          4.98326        11.26010        -0.20774
H          2.48496        10.77433         0.89710
H          0.01414        11.08496        -1.75379
H         -1.89394        10.71989         0.77634
H         -4.80559        10.87572         1.38915
H         -6.71262         9.50920         1.35894
H         -8.06402         7.70025         0.96359
H         -9.35925         5.54099         1.26838
H        -10.93262         3.32442         0.93654
H        -12.14545         1.13172         0.88663
H        -12.21407        -1.22254         0.35316
H        -10.87904        -3.54785        -0.15845
H         -9.59461        -5.55722        -0.56620
H         -8.35772        -7.63758        -1.03943
H         -7.34985       -10.19630        -0.32662
H         -5.31535       -11.43540        -0.73599
H         -2.59503       -11.32030        -0.27513
H         -0.15119       -11.27916        -0.34870
H          2.15611       -10.85948         0.95109
H          4.50032       -10.83001         1.53318
H          6.38711        -9.39027         2.19398
H          7.58251        -7.23221         2.14481
H          9.07069        -5.39285         1.78703
H         10.60044        -3.49466         0.38713
