         273
 CSIRO Nanostructure Databank - Neutral Graphene Oxide Data Set
C        -11.08843         0.54042        -0.71485
C         -9.87974         1.31505        -1.09064
C         -8.56720         0.58008        -1.04014
C         -7.46734         1.36997        -0.38365
C         -6.28592         0.68364         0.22305
C         -5.03064         1.48441         0.39850
C         -3.77037         0.70461         0.62418
C         -2.52217         1.23394        -0.00837
C         -1.24275         0.40555         0.06940
C         -0.01526         1.29007         0.23835
C          1.13318         0.72418         0.97077
C          2.79763         1.03630        -0.56952
C          3.94582         0.48963         0.25419
C          5.21430         1.24998        -0.11154
C          6.46826         0.77838         0.68122
C          7.73029         1.33500        -0.04216
C          9.03558         0.79003         0.50897
C         10.25185         1.49111        -0.03998
C         11.43943         0.65068        -0.31070
C         -9.84776         2.79534        -0.97456
C         -8.67430         3.51496        -0.89541
C         -7.44256         2.83954        -0.58912
C         -6.21948         3.52073        -0.46197
C         -5.01475         2.83396        -0.21093
C         -3.73144         3.49762        -0.35871
C         -2.47405         2.68974        -0.34795
C         -1.18044         3.40249        -0.30333
C          0.02474         2.60157        -0.19587
C          1.31023         3.30668        -0.48046
C          2.62980         2.57162        -0.69601
C          3.89255         3.37648        -0.71529
C          5.05672         2.79672         0.08982
C          6.39206         3.54374        -0.12595
C          7.71303         2.85764        -0.05638
C          8.91441         3.52952        -0.64048
C         10.09810         2.79586        -0.70957
C         -8.66233         5.02051        -1.18459
C         -7.49740         5.75349        -0.47966
C         -6.14884         5.01255        -0.70584
C         -5.03484         5.65325         0.17385
C         -3.65867         5.01359        -0.12047
C         -2.35666         5.47304         0.38237
C         -1.15789         4.75248         0.08313
C          0.12399         5.29755         0.72754
C          1.34439         4.75335        -0.04627
C          2.67226         5.41712         0.12246
C          3.79453         4.91546        -0.76755
C          5.10167         5.60813        -0.47257
C          6.31778         4.85669        -0.90662
C          7.60717         5.64983        -0.82162
C          8.82768         4.90978        -0.95156
C         -7.29765         7.19027        -0.96602
C         -6.11915         7.83767        -0.73508
C         -5.05931         7.16467         0.02043
C         -4.16585         7.92081         0.69591
C         -2.24911         6.74853         1.00366
C         -1.14181         7.57160         0.81507
C          0.15554         6.85179         0.84245
C          1.42190         7.64146         0.69882
C          2.70198         6.91080         0.43206
C          3.83619         7.63688        -0.09912
C          5.08499         6.96708        -0.24671
C          6.35454         7.79099        -0.21902
C          7.56721         7.02360        -0.70751
C         -5.80762         9.22681        -1.09409
C         -4.75271         9.90807        -0.59118
C         -3.88730         9.38258         0.53858
C         -2.38913         9.72769         0.44254
C         -1.23467         9.01526         0.68280
C          0.08593         9.81684         0.75606
C          1.34297         9.07352         0.30847
C          2.38777         9.68724        -0.29370
C          3.58860         8.92332        -0.82669
C          4.88230         9.68784        -1.01756
C          6.10065         9.14577        -0.85881
C        -11.07799        -0.79107        -0.50896
C         -9.92376        -1.66962        -0.93923
C         -8.56873        -0.91230        -0.84474
C         -7.33886        -1.55149        -0.29616
C         -6.02233        -0.75965        -0.17760
C         -4.95278        -1.45911         0.66277
C         -3.81427        -0.76610         0.91250
C         -2.57531        -1.37508         1.47550
C         -1.27191        -0.72060         1.10080
C          0.00468        -1.52490         1.12326
C          1.30172        -0.76505         0.97212
C          2.64189        -1.35506         1.35148
C          3.92390        -0.70143         0.92361
C          5.21178        -1.32643         1.51700
C          6.45383        -0.74164         0.80213
C          7.76103        -1.45433         0.73296
C          9.09994        -0.70949         0.84968
C         10.17462        -1.44707         0.06167
C         11.36590        -0.70503        -0.31212
C         -9.81592        -3.01731        -0.24763
C         -9.04444        -4.04173        -0.74215
C         -7.40535        -2.70785         0.67284
C         -6.27467        -3.69592         0.59324
C         -4.97393        -2.94391         0.79052
C         -3.86175        -3.61241         1.54936
C         -2.60906        -2.83320         1.89205
C         -1.26933        -3.65078         1.95732
C          0.05257        -2.78851         1.95993
C          1.30937        -3.54203         1.49487
C          2.62052        -2.83296         1.64099
C          3.87708        -3.68713         1.57919
C          5.21957        -2.88525         1.50917
C          6.47774        -3.61659         1.09127
C          7.87273        -2.94281         1.06155
C          8.87094        -3.56702         0.10245
C         10.04804        -2.78656        -0.21099
C         -8.75821        -5.36776        -0.11125
C         -7.62496        -5.87090         0.46134
C         -6.49323        -5.09282         1.16258
C         -5.16742        -5.94910         1.27234
C         -3.84441        -5.12212         1.38442
C         -2.51842        -5.67819         0.94167
C         -1.39915        -4.59743         0.71409
C         -0.06873        -5.18924         0.27075
C          1.24600        -4.69193         0.77655
C          2.47973        -5.36345         0.24556
C          3.82240        -4.86239         0.61835
C          4.95012        -5.55914         0.29969
C          6.23722        -4.76925         0.10326
C          7.46922        -5.57000        -0.29188
C          8.72961        -4.85617        -0.33830
C         -7.50738        -7.33219         0.45302
C         -6.30142        -7.95245         0.29963
C         -5.07403        -7.10622         0.27261
C         -3.76421        -7.72801        -0.08233
C         -2.50861        -6.94518         0.15116
C         -1.39222        -7.24857        -0.54165
C         -0.11432        -6.53601        -0.36362
C          1.06209        -7.40757        -0.04881
C          2.39482        -6.78440        -0.27309
C          3.60040        -7.66596        -0.37599
C          4.97626        -7.02602        -0.11972
C          5.91186        -7.21527        -1.35533
C          7.29448        -6.73376        -0.98417
C         -6.17615        -9.35067        -0.07503
C         -4.97873        -9.93333        -0.30250
C         -3.66537        -9.25928         0.03517
C         -2.47951       -10.02515        -0.55312
C         -1.34372        -9.53974        -1.11515
C         -0.11261       -10.30157        -1.39452
C          1.08470        -9.74898        -1.61284
C          2.26114        -9.29151        -2.01420
C          3.49278        -8.90891        -1.22498
C          4.78343        -9.40887        -1.79383
C          5.89063        -8.65446        -1.82405
O         -4.56387        -7.03026        -1.09918
O          7.18083         3.59392         1.08955
O          0.89425         7.34357         2.02299
O         -7.41276         0.97349         1.06869
O         -2.96525        -5.80120         2.32114
O          2.71016        -1.85332         2.72285
O          9.80422         1.60746         1.40825
O         -9.11549         0.94192        -2.32981
O         -3.59290         4.46591        -1.45934
O          0.00094        -5.34275        -1.19421
O         -6.93768        -4.88840         2.52368
O         -5.33937        -3.56527        -0.49847
O          2.41650        -5.67109        -1.19447
O         -1.86404        -0.45635         2.38414
O          6.91199        -1.32589        -0.45427
O          1.08546         4.40245        -1.43871
O          0.70327        -1.51140        -0.13187
O         -3.37149         7.26518         1.65586
O          3.43816        -8.97933         0.23479
O         -5.89167         5.08154        -2.18010
O          2.20961         0.32914        -1.36667
O          3.39074         2.81783        -1.95577
O          0.03380         4.73725         1.99345
O          5.99334        -4.11630        -1.14352
O          3.04468         5.87057         1.41664
O         -3.61411        -3.12633         2.90370
O         -4.35178         1.48913         1.71331
O         -1.27140        -8.21212        -1.53858
O         -7.64378        -1.68096        -1.70387
O         -2.67269         1.66600        -1.40214
O          0.88995        -8.43791         0.58651
O          6.06946        -3.58168         2.48733
O         -8.60834        -4.05309        -2.01864
H         -8.93257        -3.22906        -2.46850
O          6.14480         4.49133        -2.30401
H          5.24404         4.76323        -2.60528
O         -5.43886        -0.63959        -1.49025
H         -5.41867        -1.53287        -1.89981
O          4.62706         3.07140         1.42814
H          5.38938         2.86078         2.02462
O        -10.12029        -1.87743        -2.36932
H         -9.93468        -1.01838        -2.81500
O         -0.02792        11.05316         0.06287
H         -0.09298        10.87147        -0.89686
O          5.41698        -6.40588        -2.43797
H          5.54678        -5.44637        -2.17036
O         -1.12464        -0.27257        -1.19627
H         -1.34433         0.37762        -1.90260
O          3.48753         5.31372        -2.13340
H          2.74539         4.72966        -2.43846
O          3.80077        -4.36087         2.86732
H          4.71370        -4.65159         3.10239
O          5.40431         0.99400        -1.50783
H          4.62188         1.32781        -2.00731
O         -8.01608        -2.59336         1.74073
H         -7.58793        -4.13802         2.53178
O         -4.32354        10.07652         1.74622
H         -3.85510         9.66539         2.50375
O         -5.33311         5.31145         1.54942
H         -4.71733         5.83011         2.11892
O          7.80275         0.97034        -1.43638
H          7.40815         0.06820        -1.54375
O          1.85068         1.44326         1.67636
O          6.47995         1.32054         2.00818
H          6.02349         0.68427         2.61753
O          8.48649        -3.14095         2.34104
H          7.80575        -2.98515         3.03368
O          3.16823         8.48764        -2.17271
H          3.82012         7.83261        -2.50586
O         -5.27121        -6.68712         2.49877
H         -5.66756        -6.09618         3.17791
O          6.65720         8.08500         1.17693
H          6.77274         7.23463         1.65209
O         -1.15327        -4.36796         3.17885
H         -2.03475        -4.75756         3.40449
O         -1.86097        -3.74415        -0.35494
H         -1.42543        -4.04874        -1.18820
O         -3.50092        -9.41521         1.48355
H         -3.49000       -10.37269         1.69105
O         -5.13045         6.25877        -2.54404
H         -4.24670         5.86455        -2.76023
O          5.28701        -0.89815         2.89581
H          4.44358        -1.18946         3.32698
O         -8.60693         5.21212        -2.59916
H         -7.66940         5.10232        -2.88516
O          9.45036        -0.78656         2.24688
H          9.97982         0.01811         2.45624
O          0.23308        -2.32251         3.29661
H         -0.04282        -3.05334         3.89789
O          5.58474        -7.72273         0.99010
H          5.05854        -8.54643         1.13260
O         -7.87192         5.76005         0.90939
H         -7.05749         5.78983         1.46732
H         12.24436        -1.28777        -0.63108
H         12.36506         1.15049        -0.63367
H         10.98117         3.23101        -1.20421
H          9.75597         5.46046        -1.17351
H          8.52298         7.57224        -0.66565
H          6.99167         9.75352        -1.08275
H          4.79701        10.70513        -1.43123
H          2.31121        10.75680        -0.54523
H          0.23255        10.07010         1.84229
H         -2.23101        10.81454         0.31629
H         -4.57814        10.94655        -0.91135
H         -6.45957         9.71657        -1.83367
H         -8.12801         7.70613        -1.47086
H         -9.62717         5.46077        -0.82601
H        -10.79901         3.33214        -1.11866
H        -11.98925         1.12295        -0.46605
H        -11.99631        -1.28736        -0.16114
H        -10.16488        -3.07212         0.79198
H         -9.46965        -6.13970        -0.46512
H         -8.43500        -7.91701         0.34265
H         -7.10465        -9.91994        -0.23930
H         -4.94244       -10.98519        -0.62690
H         -2.47106       -11.08911        -0.26287
H         -0.16857       -11.40025        -1.28597
H          2.41022        -9.20396        -3.10953
H          4.80354       -10.43908        -2.18322
H          6.81804        -9.06828        -2.25170
H          8.17301        -7.27986        -1.36623
H          9.54350        -5.31116        -0.92702
H         10.85931        -3.29312        -0.76024
