         344
 CSIRO Nanostructure Databank - Neutral Graphene Oxide Data Set
C          1.32919         3.55530         1.75793
C          0.16633         4.26092         1.96593
C          1.27637         6.38383         1.47655
C          0.13309         5.66814         1.80725
C          1.24191         7.82807         1.19680
C          0.03002         8.53596         1.04849
C          1.20517        10.59267         0.48868
C          0.01549         9.88436         0.68266
C          1.25996        11.97712        -0.13906
C         -0.01699        12.76447        -0.09206
C          1.18971        14.89623         0.11318
C         -0.01889        14.11933        -0.03891
C          1.18979        16.31347         0.06994
C         -0.01047        17.04915        -0.15881
C          1.18182        19.18319        -0.17133
C         -0.01001        18.41869        -0.29127
C          1.16212        20.60609        -0.34581
C          0.05664        21.33546        -0.79881
C          1.16311        23.52412        -0.53576
C          0.03822        22.74892        -0.80428
C          1.16055        24.96253        -0.51475
C         -0.02674        25.70946        -0.68581
C          1.19417        27.81645        -0.71551
C         -0.01616        27.09934        -0.76875
C          1.23920        29.25189        -0.85147
C          3.73534         3.54013         1.19293
C          2.53657         4.23976         1.41916
C          3.72537         6.36007         1.05600
C          2.52132         5.67356         1.32134
C          3.76926         7.85286         1.23760
C          2.44629         8.52984         1.00495
C          3.67799        10.61887         0.52933
C          2.43465         9.91118         0.69138
C          3.69818        12.09918         0.74602
C          2.43073        12.80193         0.34372
C          3.67937        14.92424         0.73829
C          2.41524        14.17263         0.35388
C          3.65873        16.38027         0.34808
C          2.42875        17.05146         0.17854
C          3.64009        19.18373         0.21537
C          2.41614        18.48606         0.08263
C          3.63596        20.63668         0.36891
C          2.33680        21.38403         0.08583
C          3.53121        23.57770         0.37677
C          2.49179        22.80370        -0.43741
C          3.63284        24.99809        -0.14327
C          2.40983        25.67754        -0.39045
C          3.65086        27.79795        -0.51624
C          2.41237        27.09720        -0.53687
C          3.67151        29.26256        -0.54973
C          2.41301        29.94292        -0.77436
C          6.11585         3.51390         0.52389
C          4.91547         4.21835         0.83734
C          6.11967         6.33872         0.38081
C          4.91796         5.65354         0.78220
C          6.08618         7.79749         0.26172
C          4.91560         8.50736         0.51033
C          6.08128        10.64187        -0.02531
C          4.88792         9.93111         0.35906
C          6.07459        12.06564        -0.13094
C          4.91752        12.80319         0.19692
C          6.08033        14.95000        -0.07660
C          4.91705        14.21414         0.21118
C          6.12501        16.35001         0.12835
C          4.89013        17.06832         0.29062
C          6.10856        19.23301         0.29257
C          4.89285        18.50971         0.25462
C          6.11516        20.66649         0.27299
C          4.90287        21.36688         0.32024
C          6.17081        23.55352         0.14536
C          4.87118        22.83471         0.43936
C          6.13416        24.97688        -0.24994
C          4.86031        25.68223        -0.24183
C          6.11760        27.85750        -0.70840
C          4.84702        27.08030        -0.47549
C          6.06102        29.13826         0.12006
C          4.83753        29.93257        -0.27844
C          8.45970         3.39813        -0.34949
C          7.24585         4.18453         0.09272
C          8.42952         6.30872        -0.64625
C          7.24743         5.60635        -0.00135
C          8.55315         7.72927        -0.06795
C          7.26542         8.51102        -0.12534
C          8.47091        10.59785        -0.86597
C          7.26437         9.89469        -0.27942
C          8.46469        12.09159        -0.64449
C          7.30147        12.77538        -0.45673
C          8.59026        14.95406        -0.42289
C          7.26408        14.26946        -0.71727
C          8.58844        16.37066        -0.07607
C          7.38404        17.04676         0.11068
C          8.64379        19.25296         0.18214
C          7.39534        18.48856         0.56544
C          8.62790        20.63280         0.18193
C          7.38438        21.38516         0.18482
C          8.63215        23.45986        -0.38536
C          7.39871        22.75833        -0.04977
C          8.50390        24.81115        -1.07382
C          7.31940        25.62113        -0.56378
C          8.57778        27.71590        -0.31570
C          7.37788        27.05669        -0.52583
C          8.56444        29.15004         0.00164
C          7.37108        29.86375         0.09216
C         10.94128         3.50898         0.01972
C          9.75116         4.17345        -0.21993
C         10.96479         6.27621        -0.47163
C          9.75158         5.58149        -0.43467
C         11.00512         7.72444        -0.77720
C          9.73148         8.48452        -0.64725
C         11.03808        10.61805        -0.88786
C          9.78012         9.97007        -0.35646
C         10.99409        12.06916        -1.19472
C          9.71517        12.82673        -0.96699
C         11.07317        14.85294        -0.10999
C          9.76299        14.26887        -0.61075
C         11.08325        16.36425        -0.16441
C          9.86683        17.07867        -0.03377
C         11.11988        19.19502        -0.03102
C          9.88146        18.50433         0.05287
C         11.15395        20.66385         0.00838
C          9.89953        21.43063         0.38225
C         11.08705        23.58677        -0.35958
C          9.82678        22.81268        -0.25451
C         11.14451        24.83741        -1.20927
C          9.81457        25.72936        -1.26978
C         11.00940        27.67176        -0.11933
C          9.83966        27.00275        -0.42126
C         10.98851        29.03410         0.41585
C          9.78357        29.77808         0.33932
C         13.39578         3.53440         0.30499
C         12.18301         4.20445         0.03625
C         13.44295         6.31195        -0.25503
C         12.20269         5.61013        -0.23198
C         13.46353         7.77320        -0.43102
C         12.26845         8.47595        -0.66674
C         13.51335        10.63593        -0.86196
C         12.24134         9.91074        -0.81820
C         13.51980        12.00990        -0.97389
C         12.30859        12.84187        -1.32908
C         13.54162        14.89549        -0.58947
C         12.32996        14.21101        -0.65306
C         13.58103        16.32633        -0.34823
C         12.32325        17.05201        -0.19535
C         13.61946        19.22423         0.01569
C         12.32139        18.46647        -0.12874
C         13.54203        20.56533        -0.70507
C         12.32127        21.33365        -0.22085
C         13.63636        23.45404        -0.62048
C         12.37528        22.80941        -0.25977
C         13.74987        24.94409        -0.83869
C         12.40803        25.67974        -0.93270
C         13.59821        27.86336        -0.02751
C         12.33946        27.10040        -0.46517
C         13.33012        28.73783         1.20228
C         12.12296        29.59041         0.98940
C         15.81432         3.41805         0.60725
C         14.63554         4.17469         0.19426
C         15.89017         6.33828        -0.15643
C         14.65550         5.58832        -0.13050
C         15.89115         7.79178         0.22509
C         14.67973         8.50201        -0.31995
C         15.99323        10.56344        -0.54207
C         14.74402         9.89256        -0.58921
C         16.08382        11.97521        -0.91761
C         14.77918        12.75709        -1.09773
C         16.02777        14.85342        -0.71823
C         14.79609        14.19995        -0.82615
C         16.05077        16.29045        -0.61598
C         14.80623        17.01400        -0.45794
C         16.01645        19.15822        -0.64650
C         14.85045        18.45417        -0.40045
C         16.05574        20.61351        -0.61287
C         14.84910        21.31639        -0.56703
C         16.07316        23.45796        -0.32130
C         14.83484        22.74266        -0.55074
C         16.02891        24.80334         0.12912
C         14.68552        25.48793         0.27519
C         15.87996        27.56378         0.89788
C         14.80328        26.98537         0.30277
C         15.79654        28.94576         1.38951
C         14.57837        29.50778         1.56766
C         18.38156         3.29392         0.59876
C         17.06874         3.66299         0.11181
C         18.37223         6.32056        -0.08952
C         17.09853         5.74332        -0.41824
C         18.42017         7.74729        -0.02831
C         17.19925         8.47945        -0.08160
C         18.48541        10.56885        -0.25764
C         17.22082         9.87022        -0.26181
C         18.51509        11.99822        -0.38378
C         17.30878        12.72544        -0.62024
C         18.52797        14.84704        -0.59160
C         17.28787        14.12918        -0.67925
C         18.52911        16.27606        -0.67625
C         17.27406        16.96950        -0.71454
C         18.58162        19.19187        -0.85693
C         17.25983        18.42455        -0.92642
C         18.54509        20.64065        -0.57462
C         17.31571        21.32310        -0.57838
C         18.50219        23.46409        -0.09765
C         17.30659        22.75733        -0.34766
C         18.45449        24.80976         0.35120
C         17.19032        25.45307         0.52497
C         18.36543        27.56855         1.22364
C         17.09649        26.75015         1.29688
C         18.32528        28.94981         1.46846
C         17.04494        29.63439         1.88926
C         19.47599         4.11022         0.47431
C         20.75467         6.22598         0.28918
C         19.51826         5.52968         0.15374
C         20.83748         7.60356         0.18086
C         19.67556         8.41076         0.03262
C         20.91481        10.58403         0.02746
C         19.69631         9.85284        -0.05684
C         20.94036        11.95515        -0.08995
C         19.74770        12.70058        -0.30439
C         20.96939        14.86867        -0.45129
C         19.75340        14.13490        -0.44970
C         20.97273        16.24332        -0.53049
C         19.76601        16.98657        -0.61027
C         20.94100        19.14767        -0.20848
C         19.80325        18.42988        -0.55397
C         20.94291        20.56035        -0.17140
C         19.78499        21.31021        -0.33940
C         20.96233        23.47314         0.34016
C         19.83221        22.82352        -0.41203
C         20.88270        24.77060         0.74790
C         19.65832        25.51227         0.68381
C         20.78631        27.71826         0.92501
C         19.60917        26.93299         0.95845
C         20.72927        29.09113         1.13785
C         19.50624        29.70739         1.41452
O         17.11655         4.48639        -1.03765
O          9.75381        26.23462        -2.57277
O         12.46597        26.76954        -1.90248
O         17.96175        18.84211        -2.14510
O          2.73339        21.13377         1.44749
O          5.67702        23.35919         1.54663
O         10.17253         8.11109        -1.97359
O         11.78791        23.57766         0.92014
O         10.12113        12.45354        -2.36123
O         15.56282        12.31045        -2.25275
O          3.03313        22.70107        -1.78665
H          2.30239        22.46536        -2.39613
O         13.04299        27.78193         2.28964
H         12.86541        28.29663         3.10530
O          3.03472        23.69855         1.72560
H          3.81634        23.83436         2.30658
O         16.89261        26.36842         2.69702
H         16.08159        25.81105         2.72035
O         13.96389        28.74290        -1.10657
H         13.73988        28.26897        -1.94065
O          7.03567        14.39932        -2.16132
H          7.72810        13.87376        -2.61747
O         17.04430        31.01424         1.50500
H         16.91117        31.06110         0.53612
O         12.51282        13.14027        -2.74239
H         11.62532        13.12419        -3.17221
O          7.46845        18.40625         2.04064
H          7.57947        19.32096         2.38080
O          6.12251        28.27395        -2.10652
H          6.46830        27.53060        -2.64445
O          3.77982        12.22048         2.22913
H          4.50207        11.63056         2.53595
O         20.10103        23.11768        -1.83701
H         20.01330        24.08729        -1.95667
O          8.83415         7.56093         1.35352
H          8.98488         8.46588         1.71871
O          8.38544        10.37349        -2.29286
H          9.07235        10.94210        -2.71962
O          3.77288        14.94083         2.19394
H          3.75300        13.99619         2.49486
O          8.13515         6.36789        -2.05666
H          8.83301         6.93110        -2.47466
O         14.15265        25.14463         1.58354
H         13.63733        25.91602         1.92593
O         11.31763        24.33472        -2.54884
H         10.86705        25.04546        -3.10066
O          9.96624        21.66824         1.82940
H         10.69308        22.32524         1.96402
O         14.46391        25.14856        -2.07975
H         13.79372        25.24184        -2.79120
O         13.77101        19.52409         1.43516
H         13.72031        18.68041         1.93078
O          5.87325        28.74082         1.52085
H          5.75413        29.55550         2.05228
O          8.53541         2.14865         0.34227
H          8.64029         2.33420         1.29767
O          8.09499        24.44592        -2.41615
H          8.57765        25.11638        -2.99192
O         15.75713         7.85053         1.70212
H         15.80447         8.79583         1.95932
O          4.07693         8.06774         2.67312
H          4.87219         7.53100         2.87960
O          9.78010        10.15041         1.10045
H         10.70383        10.06585         1.41984
O         11.08285        14.49717         1.33622
H         10.38551        15.03471         1.77104
O          1.52510        11.70330        -1.56882
H          1.51734        12.56474        -2.03803
O         13.34378        20.28969        -2.11625
H         13.36717        21.13808        -2.60619
H          1.34378         2.45987         1.85129
H         -0.75941         3.73255         2.23383
H         -0.82615         6.18558         1.94625
H         -0.93018         8.01894         1.18182
H         -0.95549        10.37580         0.53103
H         -0.96947        12.23380        -0.23295
H         -0.98501        14.64051        -0.08986
H         -0.96809        16.51956        -0.24313
H         -0.96457        18.93181        -0.46990
H         -0.86471        20.81128        -1.08796
H         -0.92305        23.23711        -1.01885
H         -0.99074        25.18800        -0.76396
H         -0.96218        27.64371        -0.90298
H          0.29163        29.78952        -1.00555
H          3.74438         2.44265         1.27005
H          2.41676        31.04008        -0.85512
H          6.12742         2.41530         0.58107
H          4.85298        31.03269        -0.22708
H          8.32595         3.14818        -1.43906
H          7.40407        30.91757         0.41576
H         10.93044         2.42092         0.18160
H          9.78362        30.83607         0.64218
H         13.36443         2.46727         0.57080
H         12.10148        30.62564         1.36242
H         15.67534         2.65947         1.39252
H         14.48728        30.50149         2.03316
H         18.50902         2.31632         1.08962
H         17.01874        29.62223         3.01518
H         20.43757         3.69977         0.82551
H         21.67219         5.64484         0.46478
H         21.82707         8.07672         0.24534
H         21.85950        10.04821         0.19091
H         21.90667        12.47078        -0.01434
H         21.93098        14.34314        -0.38887
H         21.93680        16.76864        -0.53266
H         21.88145        18.62773         0.01844
H         21.90142        21.06023         0.02090
H         21.92872        22.95462         0.41114
H         21.77152        25.25023         1.18355
H         21.75315        27.24685         0.70150
H         21.64937        29.69053         1.09597
H         19.45365        30.78975         1.59790
