         277
 CSIRO Nanostructure Databank - Neutral Graphene Oxide Data Set
C         30.16934        31.69667        -0.46914
C         30.24259        32.87679        -0.11335
C         30.52546        35.86694         1.29006
C         30.61163        37.04611         1.63131
C         30.65121        40.23931         2.34008
C         30.50912        41.48521         2.16370
C         32.39292        28.88727        -1.49661
C         31.35479        29.53513        -1.36327
C         32.50192        31.70298        -1.32790
C         31.11568        30.97095        -1.31600
C         32.65203        32.92324        -0.41151
C         31.41711        33.75231        -0.06488
C         32.91294        35.65387         0.97835
C         31.54997        35.08733         0.57439
C         33.03445        37.07328         1.49648
C         31.76969        37.95083         1.58669
C         33.15596        40.03388         2.27340
C         31.80381        39.38860         1.98659
C         33.26179        41.52019         2.53586
C         31.25542        42.59195         2.58739
C         32.90331        44.30643         2.11786
C         31.76742        43.78243         2.01532
C         35.13694        27.24769        -0.62338
C         35.00134        28.63515        -1.09274
C         33.77835        29.35790        -1.52672
C         35.09556        31.62865        -1.41065
C         33.78554        30.90972        -1.58049
C         35.01870        33.16887        -1.26592
C         33.98918        33.58266        -0.21952
C         35.27392        35.84037        -0.08764
C         34.12573        34.97612         0.35158
C         35.06278        37.38108        -0.01031
C         34.41229        37.78986         1.34553
C         35.17271        40.30032         0.76059
C         34.33123        39.33446         1.63376
C         35.48081        41.62172         1.50417
C         34.29075        42.30106         2.09603
C         35.53876        44.60641         1.97092
C         34.28623        43.80900         2.21389
C         35.63807        46.00366         1.52019
C         37.55359        27.09448        -0.61968
C         36.17402        26.63760        -0.36270
C         37.54091        28.61288        -0.42639
C         36.25349        29.39740        -0.63306
C         37.63200        31.63217        -0.70955
C         36.29672        30.91563        -0.80777
C         37.70837        33.07135        -1.20276
C         36.40823        33.83631        -1.24123
C         37.67146        35.89221        -0.36632
C         36.38769        35.36691        -1.04924
C         37.70892        37.39995        -0.35539
C         36.38577        38.15387        -0.22412
C         37.70306        40.30468         0.37640
C         36.39820        39.60723         0.14044
C         37.58523        41.81533         0.13665
C         36.72844        42.41330         1.24502
C         37.82149        44.65824         0.56112
C         36.91960        43.90884         1.60052
C         37.78475        46.16382         0.37698
C         36.60965        46.65437         1.11822
C         39.51154        24.63237         1.14794
C         38.78376        24.98548         0.15877
C         40.14421        27.02491        -0.40565
C         38.81816        26.30701        -0.47695
C         40.12428        28.49925        -0.73045
C         38.88440        29.31606        -0.39532
C         40.22821        31.49944        -0.83106
C         38.91410        30.82507        -0.52014
C         40.28851        32.99606        -0.90068
C         39.04505        33.87483        -1.13279
C         40.26137        35.83979         0.03904
C         38.95171        35.11887        -0.25712
C         40.26891        37.34328         0.21702
C         39.00767        38.10454        -0.11955
C         40.26941        40.31306         0.12068
C         38.98085        39.55302         0.27021
C         40.18174        41.72451        -0.36599
C         38.92366        42.49312        -0.15500
C         40.36825        44.65198        -0.13247
C         39.10563        43.93067         0.24820
C         40.40219        46.16604        -0.00871
C         39.08475        46.90430         0.21779
C         40.32267        48.94890        -0.38308
C         39.28702        48.31407        -0.17298
C         41.82374        25.13530         2.15248
C         40.90692        24.62925         1.20224
C         42.69968        27.03428        -0.07918
C         41.33459        26.37813        -0.20711
C         42.72527        28.46289        -0.65673
C         41.43188        29.22240        -0.88500
C         42.79369        31.44851        -0.49005
C         41.48422        30.70136        -0.53592
C         42.82561        32.96666        -0.29879
C         41.53213        33.71514        -0.43284
C         42.75231        35.90404        -0.66018
C         41.51324        35.18891        -0.36236
C         42.86475        37.34710        -0.27021
C         41.59860        38.07052         0.18619
C         42.86044        40.31829        -0.12916
C         41.57176        39.58357         0.15085
C         42.76776        41.68020        -0.76009
C         41.46779        42.42228        -0.73426
C         42.66383        44.65765        -1.38669
C         41.42103        43.92345        -0.94398
C         42.67698        46.18238        -1.38444
C         41.56753        46.92833        -0.65850
C         42.87890        48.92329        -1.05955
C         41.73820        48.45032        -0.21325
C         42.79963        25.90793         2.16629
C         44.54110        27.81814         1.56493
C         43.25665        27.06828         1.40657
C         45.09066        28.64605         0.37769
C         43.99117        29.23506        -0.46433
C         45.37951        31.42738        -0.79716
C         44.06612        30.70628        -0.77747
C         45.31104        32.96593        -1.05648
C         44.19173        33.70617        -0.26554
C         45.37388        35.92061        -0.97467
C         44.08153        35.13999        -0.85073
C         45.35790        37.44081        -0.89996
C         44.08398        38.10729        -0.57414
C         45.38577        40.28240        -0.56098
C         44.11486        39.53654        -0.31283
C         45.34906        41.75837        -0.75636
C         44.03883        42.43459        -1.08489
C         45.29576        44.68804        -1.29703
C         43.99273        43.90713        -1.40247
C         45.29742        46.16355        -1.67077
C         43.99758        46.88695        -2.03022
C         43.82065        48.26651        -1.50264
C         46.73892        28.19507         2.53943
C         45.62998        27.66335         2.53143
C         47.45465        28.94515         1.49656
C         46.42588        29.34777         0.42436
C         47.84510        31.56399         0.10418
C         46.54411        30.80291        -0.04482
C         47.99122        32.91376        -0.57442
C         46.69590        33.67216        -0.91336
C         47.97874        35.94558        -0.59938
C         46.69429        35.17424        -0.86899
C         47.93968        37.44461        -0.46231
C         46.60056        38.11390        -0.33237
C         47.73778        40.35849         0.62462
C         46.54561        39.56403         0.07114
C         47.65212        41.88884         0.39016
C         46.44143        42.59183        -0.16455
C         47.69531        44.88893        -0.14879
C         46.42967        44.09639        -0.43527
C         47.58004        46.20516        -0.80785
C         46.51982        46.77394        -1.11384
C         49.61085        29.77331         2.74424
C         48.75500        29.65314         1.57496
C         50.34325        31.66571         0.88211
C         49.11681        30.78471         0.48860
C         50.51585        32.97450         0.13750
C         49.28613        33.68096        -0.41890
C         50.46266        36.02719        -0.16558
C         49.17476        35.18645        -0.00782
C         50.40088        37.50503         0.34884
C         49.16075        38.28201        -0.10566
C         50.26709        40.38500         1.02075
C         49.08225        39.73866         0.27069
C         50.14577        41.94509         1.09294
C         48.96862        42.63412         0.38775
C         50.19945        44.72032         0.64825
C         48.97363        44.13167         0.08077
C         50.54623        30.50867         3.06972
C         52.18058        32.48558         2.37077
C         51.26253        31.37689         2.13351
C         52.47785        33.34603         1.53389
C         51.76634        33.83695         0.34885
C         52.80843        36.21868         0.47477
C         51.77568        35.28783        -0.00145
C         52.84142        37.44729         0.33759
C         51.70740        38.36375         0.19814
C         52.66671        40.72078         1.07141
C         51.64403        39.82171         0.50935
C         52.57218        41.90414         1.40502
C         51.40199        42.77561         1.48803
C         51.23791        44.14470         0.99412
O         40.41193        32.16255        -2.11416
O         36.22081        39.18943        -1.24072
O         38.52487        37.88649        -1.47827
O         51.68531        32.93947        -0.75702
O         50.41100        42.42317         2.45429
O         35.10150        44.34435         3.30488
O         46.60851        42.38760         1.27766
O         41.01590        40.19079         1.36737
O         36.61713        41.57378         2.42493
O         31.35814        34.97667        -0.85014
O         46.83983        31.62481         1.14870
O         34.62045        31.26775        -2.72956
O         38.00636        35.14392         0.83376
O         46.91344        34.44233        -2.11830
O         42.16978        30.86301         0.71910
O         40.21325        44.04404         1.18995
O         42.04280        33.25336         0.89953
O         35.32265        35.12025         1.16026
O         41.64529        44.22782        -2.33647
O         37.31299        45.25951        -0.66338
O         34.69001        28.78650        -2.48873
O         43.24159        35.41928        -1.98110
O         40.19390        36.47634         1.37325
O         45.73511        40.84844        -1.84879
O         44.85620        30.80662        -1.99851
O         42.50353        37.52736         1.17026
O         46.19750        28.21733        -0.46355
O         49.31666        39.35392        -1.09040
O         46.22603        38.51408         1.02491
O         37.06504        33.37008        -2.47181
O         43.70248        28.53087        -1.72262
O         36.68824        28.99148         0.68633
O         41.42927        24.97012        -0.10872
O         48.64969        28.35196         0.96213
O         33.04370        35.94324         2.39900
O         45.68677        45.14515        -2.63042
O         48.91779        33.09526        -1.68314
O         34.20948        39.42441         3.09138
O         31.74626        38.97063         0.57495
O         51.26446        35.67404        -1.30327
O         40.00896        46.61826         1.30819
O         39.29003        42.03958        -1.49497
O         32.31332        42.06512         3.43242
O         41.52367        46.72963        -2.08228
O         51.75255        39.36901        -0.83425
O         39.02502        30.16312         0.77416
O         43.69829        40.14400         1.04669
O         45.41753        36.76382        -2.17258
O         49.28211        43.15205        -0.94527
O         38.37737        39.84741         1.57139
O         43.27554        28.36845         2.02366
O         51.52335        30.78723         0.85832
O         46.64922        44.78114         0.84126
O         36.72263        31.55779         0.42326
O         48.22478        36.80499        -1.73990
O         38.16805        26.53493        -1.77561
O         41.91332        41.68403        -1.92735
O         33.52657        32.57706         0.71442
O         31.55925        31.73610        -2.43820
O         44.06144        42.91998        -2.45892
O         47.67943        40.23116         2.06536
H         46.83821        40.64224         2.37101
O         34.42335        33.70505        -2.46360
H         34.88743        33.31887        -3.23973
O         42.08300        48.47814         1.13837
H         42.08284        49.39978         1.46756
O         36.19592        36.01928        -2.30247
H         36.78809        35.59563        -2.96264
O         34.14902        37.73831        -1.04864
H         34.57003        37.53236        -1.91374
O         40.67216        28.84096        -2.05594
O         35.32455        37.30703         2.32255
H         34.99179        37.54069         3.21639
O         50.24431        39.90593         2.38202
H         49.42214        40.24558         2.81429
O         34.27870        40.66813        -0.30084
H         34.41016        40.03455        -1.04634
O         39.26294        34.46411        -2.43085
H         39.49075        33.74294        -3.06044
O         43.84149        46.85745        -3.42294
H         44.31836        46.07965        -3.78783
O         37.72151        43.94527         2.77624
H         37.34660        43.30761         3.42464
O         50.22850        37.30345         1.77808
H         50.24275        38.18898         2.24285
O         44.87047        33.13686        -2.40029
H         45.62046        33.01458        -3.02058
O         36.78343        42.00481        -1.04406
H         37.34926        41.84946        -1.83466
O         49.48986        30.09916        -0.69661
H         50.40258        29.75146        -0.58604
O         44.60550        33.82928         1.09488
H         43.79987        33.82156         1.66447
O         43.63135        26.21602        -0.78322
H         44.02257        26.75092        -1.51765
O         48.90381        35.03855         1.40902
H         49.22335        35.84832         1.88697
