         257
 CSIRO Nanostructure Databank - Neutral Graphene Oxide Data Set
C         30.87531        32.18403        -2.26479
C         30.65353        33.43271        -2.36492
C         29.97625        36.28135        -0.22960
C         30.12298        37.48925        -0.40949
C         30.35956        40.72227        -0.10842
C         30.41250        41.94067         0.08756
C         32.87893        29.01859        -2.03537
C         31.89436        29.78248        -2.07011
C         33.20250        31.73164        -2.19902
C         31.84772        31.19345        -2.30733
C         33.41253        33.22640        -2.09275
C         30.92205        34.70030        -1.85332
C         32.48376        35.89308        -0.09052
C         30.85180        35.10935        -0.41918
C         32.56703        37.43305        -0.13032
C         31.34624        38.30657        -0.34675
C         32.57735        40.26700         0.88271
C         31.30263        39.66574         0.26098
C         32.64125        41.75216         1.19826
C         31.37330        42.70026         0.87263
C         32.84325        44.55739         1.27934
C         31.78853        44.09540         0.82868
C         35.59960        27.25992        -1.28179
C         35.53035        28.68164        -1.64019
C         34.28585        29.45486        -1.97845
C         35.48238        31.62231        -1.28608
C         34.26772        30.94582        -1.79883
C         35.24346        32.91152        -0.51499
C         33.84378        33.58947        -0.65667
C         35.07357        35.85914        -0.08274
C         33.76990        35.08196        -0.16917
C         35.02854        37.27258         0.48522
C         33.79207        38.11327         0.40785
C         35.11179        40.22129         0.74973
C         33.82149        39.45572         0.74072
C         35.22076        41.66856         1.11328
C         33.97473        42.40746         1.47626
C         35.47174        44.60644         1.70134
C         34.10008        43.93367         1.69259
C         35.61193        46.02281         1.18881
C         37.74882        27.16728        -0.16596
C         36.50040        26.63699        -0.72143
C         37.79158        28.65617        -0.46872
C         36.76921        29.36095        -1.05558
C         37.82462        31.57070        -0.26226
C         36.76521        30.86289        -1.03736
C         37.76162        32.90039         0.02210
C         36.44348        33.61231         0.01988
C         37.59377        35.81347         0.59530
C         36.38185        35.11255         0.04655
C         37.65565        37.31856         0.34859
C         36.33432        37.96853         0.70504
C         37.68974        40.13852         0.84641
C         36.39099        39.46254         0.60938
C         37.71632        41.61016         0.91745
C         36.41094        42.33581         0.94134
C         37.74795        44.50088         0.37224
C         36.37154        43.84322         0.68382
C         37.98526        46.00478         0.71476
C         36.59253        46.58923         0.69496
C         40.35895        24.36583        -0.12186
C         39.28080        24.97370        -0.05517
C         40.35708        27.11386         0.08023
C         39.00147        26.40553         0.13650
C         40.36653        28.59778        -0.11089
C         39.04826        29.33357        -0.00960
C         40.34784        31.58475        -0.02748
C         39.06093        30.81801         0.08421
C         40.29007        33.02928         0.31325
C         38.90439        33.51139         0.84255
C         40.14684        35.82635         0.75071
C         38.85834        35.04931         0.85694
C         40.08050        37.27233         1.04919
C         38.74692        37.96397         1.25603
C         40.13847        40.09463         1.10538
C         38.85682        39.43563         0.93811
C         40.31259        41.42689         0.39379
C         39.04776        42.28275         0.67595
C         40.30130        44.27912        -0.25459
C         38.99045        43.69194         0.19184
C         40.36727        45.75564        -0.48506
C         39.14740        46.61914        -0.08211
C         40.16427        48.19557        -1.59178
C         39.16606        47.79057        -0.96399
C         42.99872        24.38988         0.33900
C         41.61664        24.81984         0.48283
C         42.87171        27.16833         0.72161
C         41.59481        26.40488         0.59741
C         42.79700        28.65667         0.84081
C         41.65069        29.36728         0.15372
C         42.76858        31.62046         0.78284
C         41.65240        30.87302         0.15174
C         42.70787        33.00576         1.00702
C         41.50525        33.70056         0.77319
C         42.30516        35.68547         2.09945
C         41.53589        35.19366         0.86415
C         42.36094        37.22437         2.05993
C         41.25610        37.93819         1.66238
C         43.22289        40.53436         1.54673
C         41.16909        39.37958         1.66291
C         42.98495        41.72430         0.73023
C         41.69040        42.18914         0.44413
C         42.78328        44.21037        -0.77555
C         41.58936        43.48476        -0.27198
C         42.50543        45.26723        -1.64674
C         41.39269        46.18704        -1.48334
C         42.60471        47.98466        -2.51321
C         41.36506        47.51649        -1.98211
C         43.96883        25.10674         0.64936
C         45.35514        27.23074         1.14483
C         44.09919        26.52831         0.81117
C         45.37936        28.76882         1.29206
C         44.05262        29.45981         1.10110
C         45.32011        31.70463         1.00292
C         44.07046        30.92725         0.77477
C         45.24648        33.14094         1.47075
C         43.87815        33.77092         1.50579
C         45.64634        36.25432         2.05161
C         43.65772        34.99389         2.07813
C         45.65130        37.71591         1.97236
C         44.50600        38.48299         2.14518
C         45.66366        40.72071         1.51155
C         44.42619        39.86840         1.69311
C         45.47458        41.83116         0.48163
C         44.21708        42.36085         0.19785
C         45.38210        44.36187        -1.06060
C         44.10582        43.55027        -0.71524
C         45.34121        45.83004        -1.45969
C         44.36478        46.35087        -2.26323
C         43.80861        47.66447        -2.42545
C         47.70251        27.47319         0.78611
C         46.68230        26.76553         0.71371
C         47.90828        28.88295         0.83844
C         46.63984        29.57394         1.08962
C         47.78367        31.76508         0.60334
C         46.61024        30.95908         1.12978
C         47.82427        33.25116         0.99542
C         46.53157        33.95404         1.41989
C         47.80273        36.11852         0.89812
C         46.54828        35.46168         1.39264
C         48.06876        37.56935         1.11504
C         46.93227        38.40692         1.63920
C         48.08878        40.48506         0.64837
C         46.93224        39.87730         1.35863
C         47.95240        41.91285         0.36835
C         46.71407        42.48169         0.10285
C         47.74131        44.75480         0.18537
C         46.75648        43.82079        -0.62832
C         47.51656        46.15726        -0.32689
C         46.47240        46.48992        -0.89313
C         50.37542        29.10154         0.27112
C         49.10087        29.57604         0.62816
C         50.30083        31.82666         0.03130
C         49.13676        31.06700         0.69369
C         50.11791        33.30726        -0.30551
C         48.93009        34.01269         0.31517
C         49.45272        36.15036        -1.13346
C         48.46174        35.36631        -0.24153
C         49.63515        37.61113        -0.94563
C         49.28841        38.23519         0.43367
C         50.48971        40.38206        -0.18533
C         49.19135        39.75521         0.30478
C         50.45459        41.92908        -0.25540
C         49.20238        42.69500         0.19514
C         50.27923        44.62450        -0.56457
C         49.09719        44.15953        -0.06011
C         51.31091        29.67987        -0.36801
C         51.92587        31.81949        -1.73148
C         51.34329        31.02403        -0.72215
C         51.56484        32.91274        -2.24206
C         50.87597        33.95805        -1.45405
C         51.54335        36.21605        -2.52014
C         50.53014        35.32605        -1.94984
C         51.31738        37.44271        -2.58275
C         50.61231        38.32092        -1.69533
C         51.82497        40.53556        -2.12622
C         50.95492        39.67551        -1.46654
C         52.16202        41.75467        -1.97543
C         51.44576        42.65903        -1.15701
C         51.31414        44.03525        -1.05718
O         38.09701        44.03351        -0.95228
O         35.21797        29.01180        -3.00923
O         50.22427        31.60831         1.46761
O         31.59609        42.13323         2.15167
O         43.39179        37.86989         2.74607
O         38.57636        42.13401         2.03366
O         31.53122        39.60132         1.67809
O         42.08720        30.09379        -1.03181
O         41.36441        25.49707         1.71880
O         44.61972        35.68433         2.81650
O         32.21504        38.03348        -1.45229
O         50.32012        42.40019         1.11023
O         45.38612        27.86970         2.43843
O         48.57920        36.55640         2.05258
O         33.96258        43.05079         2.81595
O         35.74321        39.99915        -0.58925
O         47.35669        39.36159         2.67754
O         40.53315        27.70809        -1.25041
O         38.11786        26.81578         1.19283
O         33.37299        34.00907        -3.01901
O         36.55181        31.61461        -2.29157
O         40.28149        32.59517        -1.08936
O         46.04475        33.35800         2.66738
O         38.94207        30.00045         1.29435
O         42.19023        40.05002         2.30929
O         44.80782        43.42511        -2.00945
O         35.64396        37.38724         1.82992
O         43.09425        29.18615         2.17087
O         44.85836        31.42165        -0.39409
O         38.82090        33.01075         2.12017
O         37.97223        35.47227         1.95157
O         43.39613        45.42904        -2.72218
O         33.02243        35.28692         1.08073
O         49.24643        35.62991        -2.51210
O         40.64874        43.49541        -1.42922
O         51.36466        34.04264        -0.08638
O         35.94113        35.68249        -1.23326
O         40.36012        46.57800         0.72093
O         48.93035        33.80222         1.75500
O         35.53109        32.87226         0.91636
O         31.43029        35.61460        -2.65989
H         31.60696        35.25558        -3.55599
O         40.20423        41.04987        -1.00303
H         41.01483        40.57593        -1.28033
O         47.39659        44.67794         1.55479
H         48.07287        45.14155         2.09030
O         42.36107        35.66209        -0.23735
H         41.89911        35.45470        -1.07795
O         47.45106        43.57717        -1.87765
H         46.78622        43.25030        -2.52518
O         47.56563        31.80447        -0.85533
H         46.60188        31.70197        -1.04722
O         37.86114        37.63529        -1.02774
H         38.76341        37.33820        -1.29189
O         51.53086        40.11625         0.77030
H         51.32971        40.63844         1.57837
O         32.98846        32.82510         0.19859
H         33.39511        32.82462         1.09459
O         47.31595        35.04569        -1.08193
H         47.63958        34.95419        -2.01113
O         35.61251        43.95293        -0.54321
H         36.22547        43.76285        -1.29150
O         36.03183        44.54327         2.98641
H         35.33175        44.36499         3.64985
O         41.58582        35.31452         3.28775
H         42.14032        35.51762         4.07033
O         30.67273        34.04092         0.41647
H         30.71191        34.32782         1.35089
O         45.80807        41.44358         2.76637
H         46.27918        40.84264         3.38990
O         38.38925        45.97448         2.07655
H         38.63635        46.87699         2.36566
O         40.21014        36.80856        -0.35041
O         50.44152        37.94529         1.23242
H         50.21958        37.18417         1.82345
O         38.36846        37.92768         2.63841
H         38.13318        36.99715         2.87776
