         324
 CSIRO Nanostructure Databank - Neutral Graphene Oxide Data Set
C          1.59636         1.98221         0.29702
C          1.50291         3.28414        -0.07469
C          2.66884         1.52270         1.12746
C          2.33556         4.35691         0.59494
C          1.18327         6.13062        -0.69773
C          1.12595         7.25447        -1.50740
C          2.41990         5.61728        -0.26876
C          2.30656         7.95925        -1.78175
C          1.66618        11.18513        -3.16337
C          1.79459        12.53223        -3.09667
C          2.58393        10.26449        -2.52802
C          2.97069        13.12838        -2.45084
C          2.20084        15.48700        -2.84299
C          2.28971        16.84895        -2.62875
C          2.97600        14.57615        -2.08019
C          3.19301        17.36904        -1.67229
C          3.32077        18.77758        -1.47634
C          3.74628         2.35003         1.38943
C          3.72117         3.84097         1.07858
C          4.96653         1.84423         1.90478
C          4.83923         4.17248         0.05673
C          3.60731         6.31708        -0.56946
C          3.54714         7.56425        -1.25587
C          4.95447         5.72859        -0.16969
C          4.77589         8.39472        -1.51635
C          3.69750        10.69442        -1.80809
C          3.92537        12.16826        -1.79270
C          4.79081         9.88153        -1.31169
C          4.71351        12.66066        -0.61988
C          3.83804        15.05592        -1.08877
C          3.98831        16.46809        -0.89163
C          4.61160        14.11003        -0.23821
C          4.93031        17.00479         0.02318
C          4.23414        19.28143        -0.58723
C          5.07882        18.40253         0.16583
C          6.18771         2.43862         1.52012
C          6.13996         3.50491         0.51496
C          7.42221         1.80386         1.80010
C          7.24542         3.61784        -0.26570
C          6.08861         6.24272        -1.06795
C          6.07497         7.69351        -1.37261
C          7.24066         5.58452        -1.36569
C          7.32008         8.43349        -1.11030
C          5.96444        10.48428        -0.81808
C          5.94460        11.86817        -0.35323
C          7.24236         9.76627        -0.74715
C          7.04196        12.47856         0.21237
C          5.68735        14.65447         0.66208
C          5.66738        16.14720         1.01505
C          6.92616        13.81334         0.84362
C          7.04040        16.69968         1.40867
C          6.12563        18.94120         0.96312
C          7.19973        18.15988         1.46056
C          8.63239         2.11278         1.12288
C          8.56643         3.08124         0.01676
C          9.87499         1.56064         1.42136
C          9.82867         3.90254        -0.36830
C          8.60742         6.18092        -1.37082
C          8.60002         7.70542        -1.29709
C          9.82055         5.37362        -0.83998
C          9.83896         8.45686        -0.91154
C          8.46741        10.48002        -0.39292
C          8.40062        11.90222         0.04327
C          9.68185         9.84446        -0.41123
C          9.61742        12.55025         0.70869
C          8.12277        14.43402         1.46578
C          7.96014        15.81430         1.92347
C          9.30226        13.72994         1.59648
C          9.90972        17.01843         2.21390
C          8.39847        18.88397         1.69374
C          9.72961        18.36193         1.81428
C         11.08288         2.12847         0.89975
C         11.06769         3.37952         0.23011
C         12.31120         1.45063         1.19502
C         12.33766         4.07115        -0.04883
C         10.99534         6.18993        -0.27823
C         11.02216         7.69206        -0.39431
C         12.33351         5.55410        -0.13748
C         12.31938         8.39754        -0.36227
C         10.94560        10.62054        -0.32616
C         10.95578        11.84753         0.51813
C         12.26765         9.86205        -0.51755
C         12.19252        12.31865         0.90318
C         11.23978        14.95503         2.26344
C         11.14268        16.35464         2.07369
C         12.44050        14.30952         2.01741
C         12.29720        17.08469         1.67295
C         10.90602        19.10523         1.50465
C         12.19753        18.50200         1.46377
C         13.55935         2.00202         0.89572
C         13.59774         3.36871         0.31714
C         14.79173         1.35353         1.06061
C         14.75852         4.21909         0.75887
C         13.50050         6.28522        -0.02670
C         13.51728         7.74479        -0.10758
C         14.82969         5.53549        -0.03931
C         14.78037         8.50628         0.02240
C         13.55816        10.60648        -0.33337
C         13.47599        12.01240         0.25344
C         14.81065         9.87392        -0.09631
C         14.73928        12.81654         0.51545
C         13.57408        14.96916         1.55548
C         13.53006        16.39905         1.47300
C         14.74611        14.24120         1.00777
C         14.69823        17.13787         1.18023
C         13.40084        19.21524         1.19236
C         14.65757        18.56143         1.09452
C         16.03158         2.02854         0.78936
C         16.05196         3.44750         0.65217
C         17.24522         1.31699         0.67291
C         17.26927         4.14854         0.53514
C         16.00835         6.31142         0.51409
C         16.02436         7.80670         0.45055
C         17.29474         5.58728         0.53523
C         17.34369         8.47273         0.45518
C         16.06957        10.68045         0.00764
C         16.03842        12.09534         0.40735
C         17.40975         9.93147         0.23723
C         17.24793        12.79767         0.51132
C         16.05390        14.92932         1.21355
C         15.99039        16.43260         1.19448
C         17.27600        14.24049         0.72427
C         17.15363        17.15483         0.55482
C         15.89855        19.28466         0.97681
C         17.14288        18.64708         0.82181
C         18.47585         1.99091         0.49080
C         18.49544         3.42836         0.50030
C         19.69137         1.28833         0.30703
C         19.72904         4.13753         0.51606
C         18.49917         6.28739         0.64154
C         18.51599         7.74449         0.65166
C         19.73965         5.56317         0.64845
C         19.78224         8.43267         0.84159
C         18.60280        10.68114         0.67610
C         18.53206        12.11225         0.53767
C         19.76604         9.86791         0.98861
C         19.67620        12.95523         0.32615
C         18.41616        14.99868         0.49738
C         18.47249        16.46332         0.90836
C         19.62115        14.34599         0.08611
C         19.64706        17.23482         0.37194
C         18.36884        19.32703         0.74959
C         19.61555        18.65891         0.48512
C         20.92264         1.97396         0.22199
C         20.94632         3.40458         0.41352
C         22.13506         1.29438        -0.03628
C         22.18088         4.08867         0.51474
C         20.97864         6.24975         0.80795
C         21.00020         7.70013         0.99371
C         22.16893         5.48674         0.78400
C         22.26740         8.36193         1.21538
C         21.00770        10.42053         1.38884
C         20.97051        12.37767         0.58255
C         22.26824         9.79957         1.29732
C         22.07125        12.41711        -0.21824
C         20.80968        15.12622        -0.24221
C         20.81986        16.56040         0.00371
C         21.97007        14.56916        -0.79324
C         22.03355        17.30175        -0.12040
C         20.82074        19.38405         0.32989
C         22.04667        18.72056         0.09260
C         23.37286         1.97935        -0.05764
C         23.41428         3.37228         0.29233
C         24.57865         1.32022        -0.41297
C         24.67074         4.01922         0.35500
C         23.43751         6.13279         1.11662
C         23.47651         7.58880         1.25994
C         24.75489         5.38322         0.91020
C         24.76452         8.09716         1.50370
C         23.41576        10.68177         1.02843
C         23.32877        11.80479         0.13569
C         24.73526        10.26568         1.29757
C         24.51367        12.37597        -0.37087
C         23.23624        15.24201        -0.71708
C         23.25682        16.61278        -0.34249
C         24.47349        14.56594        -0.86191
C         24.51522        17.26138        -0.22130
C         23.29949        19.39747         0.04203
C         24.52114        18.70900        -0.08257
C         25.81036         1.99165        -0.42139
C         25.85787         3.35520         0.01057
C         26.99288         1.36818        -0.96376
C         27.15028         4.05127         0.13824
C         25.98057         6.17353         0.67543
C         25.96218         7.53932         0.96959
C         27.18268         5.53604         0.24893
C         27.08022         8.38369         0.43711
C         25.89474        10.75909         0.69788
C         25.81088        11.99974         0.00668
C         27.05851         9.90384         0.34582
C         27.01054        12.79369        -0.20530
C         25.71533        15.08568        -0.43737
C         25.70531        16.49696        -0.19501
C         26.96673        14.27092        -0.33008
C         26.96307        17.22871         0.03194
C         25.76070        19.39525        -0.15904
C         26.98227        18.69259        -0.20537
C         28.19156         2.03696        -1.07430
C         28.37723         3.34981        -0.42234
C         29.29361         1.52787        -1.85388
C         29.52538         4.18362        -0.78902
C         28.37103         6.27057         0.08841
C         28.37574         7.69911         0.18696
C         29.68362         5.52599        -0.10725
C         29.52772         8.47173        -0.11386
C         28.30183        10.65155         0.07565
C         28.22843        12.08062        -0.04351
C         29.51006         9.92739        -0.12219
C         29.51313        12.80181        -0.00879
C         28.16597        14.97437        -0.26919
C         28.24331        16.44467        -0.10769
C         29.48138        14.31517        -0.12755
C         29.46269        17.16527        -0.52365
C         28.20973        19.31812        -0.43074
C         29.42424        18.58506        -0.63153
C         30.39449         2.29239        -2.10047
C         30.51974         3.64480        -1.59199
C         31.67338         4.43471        -1.91466
C         30.75007         6.38012        -0.74223
C         30.73485         7.78761        -0.54308
C         31.75898         5.75316        -1.51446
C         31.89164         8.55457        -0.83705
C         30.72021        10.64928        -0.42553
C         30.74832        12.09043        -0.37102
C         31.89134         9.93098        -0.75327
C         31.88537        12.85102        -0.62352
C         30.69848        15.00986        -0.59339
C         30.65318        16.45333        -0.81312
C         31.85710        14.26391        -0.72978
C         31.79254        17.17734        -1.22714
C         30.60062        19.27442        -1.02064
C         31.76051        18.57135        -1.32213
O         10.16373        14.13055         2.62904
O         21.04651        11.74412         1.83671
O          5.82579        13.84041         1.86228
O          5.49797         7.96443        -2.72742
O          9.28635         2.85385        -1.23134
O         28.09912         3.36472         1.03736
O         29.64696        13.65823         1.18141
O         10.65582         7.02295         0.88457
O          9.48299         8.29736        -2.31168
O         11.55940        10.46164        -1.65256
O          4.26606        12.74880        -3.08700
O          3.82087        13.07601         0.46178
O          2.15250         8.97945        -2.71176
O         14.65754        13.97024        -0.43511
O         12.37796        12.91849         2.15680
O         13.51824        11.76951        -1.18429
O          7.16559         4.20423        -1.52887
O         16.20914        15.67645         2.46488
O         26.63406         9.06052        -0.82460
O         24.16390         5.48201         2.24096
O         24.42249        13.29426        -1.42548
O          9.60213         5.60217        -2.25502
O         21.95843        13.26614        -1.34771
O         27.71937        16.83942         1.22517
O          9.21694        12.87842        -0.69345
O         13.22216         3.42368        -1.09505
O         24.90865         9.25990         2.25462
O         16.96883        10.36882        -1.10341
O         15.74435         7.06576         1.73929
O          8.90848        16.30191         2.84405
O          5.33927         6.33888         1.11297
H          5.13607         7.29729         1.06903
O          1.57214         4.74037         1.76955
H          2.21526         4.72611         2.52254
O          4.00717         4.45512         2.35559
H          4.47423         5.31314         2.20362
O          4.43492         3.59520        -1.19410
H          5.20170         3.64558        -1.80939
O         16.99197        16.98672        -0.88015
H         16.15956        17.42782        -1.15117
O         15.15852         5.24861        -1.41202
H         14.49226         4.59349        -1.74229
O         14.49472         4.52603         2.15013
H         15.08766         5.25791         2.43251
O          4.88453        16.25027         2.24236
H          5.08496        15.44460         2.77274
O         18.69178        16.50057         2.34096
H         17.89547        16.10404         2.77679
O         30.15916         5.22070         1.25658
H         29.53888         4.53566         1.61059
H          0.88673         1.24138        -0.09955
H          0.69794         3.59723        -0.75567
H          2.72392         0.45753         1.39650
H          0.25565         5.61567        -0.41641
H          0.17364         7.61152        -1.91968
H          0.79439        10.74004        -3.66286
H          1.00214        13.17682        -3.50109
H          1.53255        15.10890        -3.62809
H          1.68169        17.54247        -3.22690
H          2.68202        19.45318        -2.06340
H          4.98687         0.85574         2.38955
H          4.34238        20.36723        -0.45227
H          7.43681         0.99778         2.54850
H          6.22154        20.03745         1.00148
H          9.95314         0.75037         2.16064
H          8.32830        19.97084         1.52195
H         12.25567         0.45946         1.66849
H         10.80805        20.17216         1.25730
H         14.81651         0.29731         1.36653
H         13.35931        20.30932         1.08350
H         17.23582         0.21834         0.72311
H         15.86978        20.38242         1.05626
H         19.67625         0.19109         0.23201
H         18.37957        20.42281         0.85988
H         22.11404         0.21323        -0.23818
H         20.81200        20.47775         0.44805
H         24.53949         0.26269        -0.71356
H         23.31650        20.49249         0.14940
H         26.88884         0.37137        -1.41850
H         25.76789        20.49433        -0.21020
H         29.21338         0.51450        -2.27349
H         28.23666        20.41093        -0.55779
H         31.21748         1.89356        -2.71099
H         32.46306         3.99520        -2.53978
H         32.60784         6.34560        -1.88283
H         32.83027         8.04980        -1.09837
H         32.82529        10.46829        -0.96158
H         32.84727        12.35836        -0.81836
H         32.79917        14.76231        -0.99647
H         32.72808        16.65159        -1.45923
H         30.57970        20.37065        -1.09889
H         32.66414        19.11330        -1.63404
