         598
 CSIRO Nanostructure Databank - Neutral Graphene Oxide Data Set
C         22.81251        69.85326        -0.06819
C         22.86389        71.25446         0.08356
C         21.71631        72.10796         0.04353
C         22.80425        74.25422        -0.75302
C         21.71416        73.44883        -0.36641
C         25.30491        65.54601        -0.02233
C         25.29298        66.97291        -0.26289
C         24.05531        67.70726        -0.26985
C         25.23430        69.86489        -0.62650
C         24.00338        69.10598        -0.29876
C         25.31941        71.30232        -0.32557
C         24.16272        71.86696         0.17230
C         25.35242        74.25262        -1.00234
C         24.13875        73.94599        -0.39107
C         27.76545        61.32092         0.94345
C         27.68894        62.72814         0.84755
C         26.50741        63.42184         0.51313
C         27.76418        65.54385         0.18064
C         26.47020        64.82370         0.23561
C         27.78799        67.01319        -0.09633
C         26.50459        67.68419        -0.30567
C         27.79558        69.89428        -0.37912
C         26.55616        69.11233        -0.58645
C         27.77236        71.32473        -0.57808
C         26.54656        72.04427        -0.53228
C         27.78747        74.10338        -1.05418
C         26.55389        73.47472        -0.80027
C         30.25125        57.07403         1.17354
C         30.22874        58.44637         1.42332
C         29.03767        59.21899         1.22833
C         30.19873        61.40966         1.39576
C         28.97481        60.62868         1.23856
C         30.19270        62.77620         1.29347
C         28.91363        63.50503         1.17811
C         30.21031        65.74763         0.79228
C         28.93697        64.98418         0.90615
C         30.22818        67.08939         0.50956
C         28.91787        67.84009         0.49306
C         30.23638        69.91520        -0.20046
C         28.97818        69.24114        -0.07190
C         30.24694        71.30894        -0.57969
C         29.02602        72.00828        -0.69396
C         30.25544        74.11886        -1.05696
C         29.02996        73.43181        -0.94439
C         32.78916        52.70826         0.57966
C         32.70732        54.12956         0.71433
C         31.50631        54.80302         0.84985
C         32.79332        56.96320         1.36445
C         31.44738        56.22274         1.27571
C         32.78659        58.45582         1.50690
C         31.48634        59.18690         1.72528
C         32.76280        61.43344         1.41233
C         31.47788        60.70055         1.64349
C         32.75078        62.85451         0.95188
C         31.44006        63.55018         1.03156
C         32.76525        65.77081         1.04451
C         31.44618        65.03702         1.15949
C         32.69718        67.14417         0.51298
C         31.48187        67.80738         0.32494
C         32.66287        69.84239        -0.58657
C         31.43871        69.20075        -0.07054
C         32.70773        71.30481        -0.78214
C         31.49747        72.00429        -0.76905
C         32.72549        74.11946        -1.07347
C         31.49759        73.44135        -0.97195
C         35.28143        48.46600         0.16480
C         35.23871        49.86059         0.34858
C         34.03919        50.59275         0.41754
C         35.26947        52.71851         0.81528
C         34.00670        52.00891         0.56060
C         35.26088        54.16574         0.87082
C         33.99714        54.88087         0.46512
C         35.21722        57.00865         0.79506
C         34.02266        56.31335         0.91119
C         35.20142        58.46926         0.58879
C         33.92497        59.20039         0.87662
C         35.26376        61.40546         0.90317
C         33.96311        60.68762         0.92943
C         35.23786        62.85102         1.06749
C         34.05420        63.57293         1.04643
C         35.25422        65.70177         0.83861
C         34.05304        65.01845         0.98274
C         35.28315        67.15302         0.58108
C         33.97276        67.86552         0.34704
C         35.24044        69.81818        -0.73513
C         33.95294        69.09506        -0.49103
C         35.18725        71.28989        -0.87007
C         33.97370        71.97983        -0.94090
C         35.17980        74.15809        -1.07368
C         33.97796        73.43962        -1.05321
C         37.82310        44.23197        -0.60095
C         37.78200        45.62622        -0.24798
C         36.53137        46.35634        -0.20480
C         37.82209        48.44219         0.13619
C         36.48929        47.71777         0.06414
C         37.70340        49.80147         0.79837
C         36.53597        50.63969         0.32378
C         37.69031        52.69183         1.38438
C         36.44398        52.00575         0.95668
C         37.70449        54.19160         1.26360
C         36.44314        54.89089         0.94219
C         37.69671        57.05082         0.61153
C         36.47635        56.32273         0.74738
C         37.75919        58.46764         0.52865
C         36.48588        59.24187         0.44110
C         37.71210        61.44037         0.56574
C         36.43839        60.70931         0.70054
C         37.78518        62.87153         0.95187
C         36.52273        63.58332         1.39059
C         37.71308        65.72426         0.83932
C         36.52031        65.02823         0.94305
C         37.75455        67.10493         0.38544
C         36.55163        67.74942         0.12491
C         37.79605        69.85074        -0.43443
C         36.53711        69.09621        -0.47113
C         37.71726        71.32775        -0.54728
C         36.46910        71.97162        -1.08005
C         37.74913        74.24355        -0.97121
C         36.48219        73.51813        -1.19703
C         40.29715        39.92608        -0.98082
C         40.27560        41.30325        -0.84701
C         38.94149        42.01619        -0.93683
C         40.23260        44.08610        -0.20742
C         38.99424        43.48679        -0.58474
C         40.17984        45.45143         0.30673
C         38.96157        46.23554         0.18621
C         40.21476        48.38584         0.80506
C         38.90377        47.60263         0.82722
C         40.24418        49.71992         1.06682
C         38.96646        50.45113         1.27636
C         40.28623        52.65126         1.16737
C         39.00129        51.95001         1.43651
C         40.26089        54.08802         0.65698
C         38.99693        54.88020         0.97668
C         40.28123        57.03387         0.49430
C         38.96157        56.29309         0.47996
C         40.24518        58.49763         0.57270
C         38.99696        59.16083         0.49634
C         40.24516        61.34228         0.79327
C         38.97655        60.64991         0.40429
C         40.26223        62.80158         1.09139
C         38.97053        63.53970         1.02189
C         40.28468        65.75009         0.84722
C         38.99128        65.02462         1.10543
C         40.26265        67.15393         0.35522
C         39.01856        67.79123         0.16180
C         40.26019        69.89399        -0.43270
C         38.98043        69.18673        -0.20670
C         40.26267        71.39652        -0.59545
C         38.96700        72.13603        -0.48220
C         40.22277        74.24616        -0.76113
C         38.97079        73.59076        -0.80833
C         42.63630        35.59940        -0.95689
C         42.72063        37.02967        -0.76089
C         41.54238        37.77833        -0.96547
C         42.75650        39.89686        -0.86816
C         41.51909        39.18668        -0.92141
C         42.74546        41.33632        -0.79100
C         41.49936        42.02686        -0.67682
C         42.72339        44.15515        -0.24251
C         41.48162        43.42567        -0.34903
C         42.74893        45.54235         0.01430
C         41.52115        46.21590         0.44250
C         42.72833        48.45623         0.22972
C         41.44278        47.69570         0.34109
C         42.76585        49.86809         0.64384
C         41.55078        50.46142         1.33934
C         42.74579        52.66495         1.01532
C         41.47472        51.96219         1.13266
C         42.75310        54.11316         1.31250
C         41.46977        54.88369         1.14509
C         42.71300        57.05684         0.96304
C         41.53088        56.34073         0.87703
C         42.72581        58.48715         0.72023
C         41.50155        59.16998         0.59777
C         42.77321        61.38720         0.37870
C         41.49008        60.63015         0.39426
C         42.79153        62.84351         0.66513
C         41.56824        63.59260         1.17583
C         42.79801        65.69549         0.60222
C         41.49473        64.92957         0.43223
C         42.77852        67.14064         0.43186
C         41.51414        67.82455         0.19878
C         42.70959        69.96763        -0.13689
C         41.52599        69.22493        -0.09835
C         42.68891        71.41226        -0.17244
C         41.50859        72.13397        -0.33759
C         42.65928        74.30897        -0.47970
C         41.46499        73.58408        -0.47737
C         45.21048        32.86363        -0.47405
C         43.94529        33.40106        -0.79847
C         45.36264        35.78288         0.03695
C         43.56000        34.70726        -0.41622
C         45.25929        37.10462        -0.40816
C         43.96730        37.75267        -0.58322
C         45.23303        39.85295        -1.04346
C         43.96197        39.15190        -0.79378
C         45.22313        41.39170        -1.02733
C         43.95529        42.07372        -0.74864
C         45.18815        44.20042        -0.54906
C         43.96639        43.47535        -0.51207
C         45.19674        45.61947        -0.35737
C         43.96347        46.30159        -0.08037
C         45.19761        48.43865         0.07736
C         43.99006        47.70437         0.11882
C         45.18858        49.86969         0.20385
C         43.94345        50.56837         0.52362
C         45.16866        52.77162         0.55832
C         43.94610        52.01503         0.75967
C         45.24076        54.14577         0.77185
C         44.04940        54.86138         1.27945
C         45.25827        57.08895         0.82762
C         44.01205        56.37504         1.19561
C         45.25000        58.49903         0.78510
C         43.98196        59.22427         0.73526
C         45.21487        61.41503         0.74813
C         43.99525        60.60950         0.61339
C         45.18400        62.79187         0.09760
C         43.95084        63.54511         0.52810
C         45.32117        65.64024         0.94612
C         43.98015        64.99842         0.64695
C         45.28042        67.21772         0.90827
C         43.98939        67.81800         0.34312
C         45.27913        69.99365        -0.12456
C         43.98879        69.22684        -0.08104
C         45.22468        71.48093        -0.06130
C         43.93571        72.15357         0.10751
C         45.21318        74.34922        -0.36235
C         43.92652        73.70377        -0.07840
C         46.37974        33.54548        -0.12773
C         47.74309        35.65119        -0.33986
C         46.53049        34.97542        -0.11273
C         47.75643        37.06921        -0.48875
C         46.50821        37.78661        -0.59276
C         47.72357        39.90885        -0.82039
C         46.51795        39.17975        -0.81126
C         47.71518        41.34923        -0.80151
C         46.48958        42.07562        -0.77920
C         47.65533        44.21164        -0.63211
C         46.45802        43.49982        -0.65351
C         47.64060        45.68305        -0.93207
C         46.40208        46.36143        -0.42208
C         47.66225        48.49667        -0.24332
C         46.42949        47.75590        -0.19326
C         47.64605        49.89951        -0.10050
C         46.39183        50.57499         0.07575
C         47.66239        52.80514        -0.03506
C         46.34685        52.05192         0.03367
C         47.66707        54.23275         0.32750
C         46.45935        54.90458         0.58636
C         47.69197        57.05664         0.49998
C         46.46112        56.34814         0.67221
C         47.68599        58.48059         0.56518
C         46.49331        59.19856         0.70837
C         47.70321        61.43272         0.31839
C         46.52781        60.67921         0.77495
C         47.69856        62.82431         0.09987
C         46.48035        63.55974         0.20151
C         47.67677        65.67497        -0.06694
C         46.48734        64.96901         0.22857
C         47.63311        67.12840        -0.11035
C         46.54503        67.84982         0.32206
C         47.70294        70.04059        -0.30014
C         46.57535        69.36708         0.42346
C         47.58434        71.43874        -0.62471
C         46.38274        72.19711        -0.22445
C         47.69943        74.29588        -0.43374
C         46.39731        73.64471        -0.35025
C         48.96291        37.79625        -0.59358
C         50.18914        39.94471        -0.71012
C         48.97588        39.20725        -0.71069
C         50.20008        41.35624        -0.68270
C         48.94481        42.03787        -0.64772
C         50.22312        44.23501        -0.50906
C         48.91346        43.48603        -0.46562
C         50.17180        45.68334        -0.85098
C         48.91427        46.41590        -0.60828
C         50.17868        48.51368        -0.31307
C         48.91993        47.78449        -0.42389
C         50.15556        49.91436        -0.07048
C         48.90201        50.63721        -0.06034
C         50.15106        52.76933         0.08864
C         48.92045        52.03403         0.02458
C         50.12348        54.17960         0.09101
C         48.90945        54.92902         0.27443
C         50.17554        57.06649         0.20883
C         48.92400        56.34481         0.33516
C         50.20373        58.47760         0.21316
C         48.96878        59.21345         0.53677
C         50.16675        61.38987        -0.19867
C         48.96802        60.71049         0.36037
C         50.17471        62.86308        -0.20160
C         48.94293        63.54616        -0.11839
C         50.11418        65.61609        -0.70408
C         48.91270        64.96500        -0.31172
C         50.05378        67.04093        -1.10044
C         48.77641        67.80508        -0.79981
C         50.11885        70.02621        -1.04450
C         48.82776        69.30272        -0.86549
C         50.13568        71.39093        -1.00800
C         48.87962        72.19182        -0.97800
C         50.18034        74.32098        -0.27503
C         48.87645        73.62668        -0.61180
C         51.43606        42.09835        -0.71870
C         52.70012        44.24556        -0.69627
C         51.48870        43.49018        -0.71418
C         52.72785        45.64704        -0.58323
C         51.47925        46.42139        -0.79114
C         52.63620        48.50551        -0.13152
C         51.42232        47.84391        -0.42422
C         52.60324        49.87743         0.18403
C         51.38354        50.60244         0.15321
C         52.60847        52.73199         0.41272
C         51.40141        52.04857         0.22438
C         52.69848        54.14421         0.06349
C         51.36669        54.91536        -0.12328
C         52.63251        57.05628         0.11076
C         51.39759        56.36840         0.05813
C         52.63480        58.47611         0.12738
C         51.42314        59.17574         0.09664
C         52.70293        61.40782        -0.08417
C         51.45732        60.63323        -0.19038
C         52.66512        62.82121        -0.30786
C         51.40468        63.53312        -0.40710
C         52.61025        65.59748        -1.00245
C         51.37190        64.93959        -0.69156
C         52.64625        67.00035        -1.62468
C         51.32607        67.77786        -1.42478
C         52.62418        69.95757        -1.60358
C         51.42243        69.23346        -0.95521
C         52.66951        71.42026        -1.19326
C         51.39268        72.15612        -1.17351
C         52.71558        74.20763        -0.48276
C         51.41393        73.63801        -0.82930
C         53.91022        46.37933        -0.34324
C         55.11451        48.48462         0.06837
C         53.90635        47.77892        -0.13800
C         55.14953        49.86045         0.39169
C         53.84527        50.52641         0.63634
C         55.13989        52.74835         0.91246
C         53.82506        52.02235         0.83875
C         55.15993        54.24079         0.69699
C         53.90037        54.94199         0.35206
C         55.14933        57.06342         0.20157
C         53.87200        56.30776         0.23811
C         55.12600        58.47983         0.66051
C         53.85135        59.24913         0.48725
C         55.13092        61.39374         0.25902
C         53.91140        60.71899         0.24663
C         55.17052        62.79494        -0.25046
C         53.88406        63.53965        -0.47385
C         54.97563        65.63423        -1.62411
C         53.82156        64.88368        -0.96648
C         55.10887        67.09206        -1.22568
C         53.89597        67.80036        -1.26946
C         55.14706        69.89472        -1.22639
C         53.91703        69.21209        -1.29210
C         55.13096        71.38173        -1.31513
C         53.85135        72.09464        -1.06208
C         55.14903        74.15112        -0.44418
C         53.89144        73.50982        -0.69856
C         56.34355        50.59426         0.46208
C         57.59841        52.72727         0.61413
C         56.40364        52.00862         0.67024
C         57.65135        54.17175         0.56103
C         56.44586        54.88889         0.43568
C         57.71070        57.07872         0.49264
C         56.46086        56.33707         0.23486
C         57.70680        58.46949         0.58727
C         56.42852        59.21037         0.79094
C         57.72140        61.39497         0.59932
C         56.38763        60.71591         0.69281
C         57.75578        62.85276         0.31344
C         56.47575        63.52817        -0.06354
C         57.69002        65.61470        -0.48269
C         56.58438        65.00094         0.07309
C         57.63087        67.01140        -0.98408
C         56.34317        67.76547        -1.04235
C         57.65831        69.89796        -0.99857
C         56.38086        69.18729        -1.07701
C         57.69403        71.36934        -1.09500
C         56.41147        72.14136        -1.16525
C         57.57257        74.15184        -0.18960
C         56.37844        73.52038        -0.60945
C         58.88188        54.89610         0.51116
C         60.15428        57.03835         0.50626
C         58.93649        56.31928         0.49999
C         60.17628        58.45410         0.45465
C         58.94038        59.19236         0.51406
C         60.16178        61.31191         0.18662
C         58.95931        60.61080         0.42354
C         60.15688        62.70873        -0.18092
C         58.98287        63.46767        -0.23908
C         60.14563        65.57878        -0.69257
C         58.93730        64.86058        -0.61222
C         60.17235        67.01431        -0.63285
C         58.94298        67.76836        -0.99186
C         60.09523        69.93224        -0.49832
C         58.88658        69.23980        -0.85621
C         60.10765        71.30538        -0.21958
C         58.94581        72.10609        -0.63354
C         59.94009        74.10393         0.44077
C         58.82062        73.49723        -0.13334
C         61.39179        59.18070         0.36914
C         62.64453        61.28823         0.14357
C         61.41165        60.57931         0.21391
C         62.69048        62.66790        -0.12890
C         61.43531        63.33225        -0.54448
C         62.65507        65.57514        -0.32790
C         61.43496        64.86370        -0.72989
C         62.58781        66.96889        -0.09780
C         61.34955        67.68760        -0.35152
C         62.51695        69.86192         0.31520
C         61.35539        69.16876        -0.35362
C         62.39840        71.27436         0.73264
C         61.22670        71.98399         0.37582
C         62.30329        74.05220         1.15282
C         61.15945        73.39370         0.66027
C         63.86712        63.42321        -0.03766
C         65.00503        65.56595         0.38258
C         63.85761        64.85521        -0.04591
C         64.94524        66.94609         0.66604
C         63.72324        67.63373         0.42741
C         64.74118        69.68822         1.58103
C         63.57513        69.00967         0.92678
C         64.67568        71.17234         1.78400
C         63.49207        71.92503         1.32970
C         64.72647        74.04916         1.68172
C         63.49577        73.35200         1.44354
C         66.09847        67.66909         1.14496
C         67.24339        69.78497         1.68846
C         66.05699        69.01148         1.51196
C         67.24380        71.17924         1.83532
C         65.97006        71.92557         1.98083
C         67.20348        74.06217         1.76481
C         65.95143        73.39253         1.78791
C         68.43278        71.94187         1.79142
C         68.39937        73.34422         1.78748
O         41.92225        54.47330         2.46536
O         40.87499        45.66362         1.61192
O         40.23626        61.78712         2.18726
O         39.79322        65.58540         2.20862
O         45.21586        40.62238        -2.28420
O         58.37631        67.21934        -2.22674
O         44.22479        55.67587         2.47618
O         44.79501        69.42638        -1.35889
O         50.84277        46.07657        -2.08565
O         57.86522        62.40745         1.69107
O         55.79840        71.97031        -2.49067
O         32.33942        58.80069         2.84577
O         32.00694        63.11964        -0.28187
O         52.14740        54.44414        -1.26495
O         65.14341        71.52608         3.12856
O         45.92255        61.27481         1.99541
O         49.18596        60.10710         1.69561
O         54.27759        58.73688         1.81206
O         42.05536        61.05930        -0.88388
O         48.32072        68.48456        -2.01604
O         38.19232        71.90025         0.74811
O         38.32810        61.19763        -0.77442
O         35.71407        58.81388        -0.74087
O         49.63275        43.95246         0.79311
O         32.20633        56.33635         2.54133
O         33.18739        69.00328        -1.72080
O         53.67318        51.11429         1.97658
O         55.84789        56.83866        -1.06196
O         38.00413        49.83163         2.20375
O         38.28856        52.30756         2.67213
O         62.48065        69.71775        -1.14205
O         56.36930        60.03338         1.99774
O         25.88594        69.45984        -1.85901
O         51.28203        73.20143        -2.21154
O         39.66934        56.51155        -0.78494
O         63.69502        69.03951         2.39018
O         34.67059        68.02968         1.63265
O         35.95054        69.15038        -1.85021
O         61.53932        63.94100        -1.86444
O         43.86718        73.05126         1.24668
O         50.68795        60.85322        -1.45759
O         38.50098        54.81343         2.33633
O         47.96300        71.80049        -2.01933
O         28.66531        64.50140         2.25446
O         28.14652        66.05412        -1.14346
O         56.10678        63.01190        -1.39237
O         46.85176        52.56701        -1.24864
O         36.60546        72.60499        -2.37080
O         45.60300        65.24672         2.27984
O         41.86023        48.20164        -0.97109
O         32.27028        61.27655         2.75975
O         58.65318        71.91114        -2.05744
O         55.60284        65.17537        -2.55447
O         24.23777        73.12878         0.76271
O         55.16007        53.64304         2.06845
O         32.08592        65.57819         2.35342
O         50.43406        67.39823        -2.49004
O         40.31320        70.52879        -1.77288
O         33.54674        59.98517        -0.30272
O         44.27755        35.22079         0.69614
O         50.32839        74.34247         1.15513
H         49.53922        74.77192         1.54518
O         52.40485        69.91245        -3.02595
H         53.14317        70.37613        -3.47367
O         55.67274        65.68381         0.82803
H         54.98100        65.07694         1.16248
O         46.68329        69.74234         1.82318
H         46.13600        69.08500         2.33609
O         41.32514        64.62133        -0.97441
H         41.37371        65.45505        -1.48777
O         40.34760        53.95238        -0.78358
H         40.21027        54.85485        -1.17512
O         38.53852        47.34510         2.20019
H         39.25262        46.79607         2.59352
O         41.80292        63.88844         2.56110
H         41.54476        63.09883         3.08533
O         45.18887        67.63763         2.30145
H         45.34895        66.77413         2.81048
O         47.55208        45.74763        -2.41706
H         47.67267        46.68499        -2.68201
O         45.04259        62.49655        -1.33049
H         44.67085        63.28309        -1.78217
O         36.57683        63.58834         2.85608
H         37.35745        64.11641         3.13103
O         52.80031        66.76288        -3.04543
H         51.89480        66.74377        -3.43759
O         36.81876        50.91863        -1.10096
H         36.02572        51.35436        -1.48230
O         38.40250        41.84725        -2.26152
H         39.02175        42.25789        -2.89929
O         51.70551        69.10526         0.46906
H         51.85280        70.00071         0.84124
O         28.52988        68.01072         1.89741
H         29.31527        68.31008         2.40231
O         41.80473        50.23549         2.76473
H         41.06531        50.63860         3.26983
O         38.28851        48.63072        -1.21977
H         37.76254        49.36450        -1.61839
O         34.04325        54.95263        -1.01716
H         34.79116        55.53941        -1.26443
H         22.60507        75.12081        -1.40079
H         25.40203        75.08747        -1.71826
H         27.79235        75.17860        -1.28882
H         30.24868        75.20748        -1.21710
H         32.72191        75.21199        -1.20447
H         35.14596        75.25123        -0.94823
H         37.72726        75.34277        -1.02730
H         40.25271        75.33312        -0.93042
H         42.65535        75.36009        -0.80525
H         45.21594        75.41888        -0.62142
H         47.73320        75.37759        -0.22431
H         50.14178        75.38332        -0.65363
H         52.75115        75.21789        -0.04959
H         55.12971        75.18640        -0.07160
H         57.50383        75.17680         0.20598
H         59.87316        75.15221         0.76848
H         62.27759        75.14442         1.28079
H         64.71324        75.14878         1.63583
H         67.22452        75.15959         1.70176
H         21.84373        69.33250        -0.03968
H         20.73218        71.62057         0.12766
H         20.71648        73.87255        -0.56684
H         24.33605        65.02509         0.01758
H         23.12280        67.14884        -0.09649
H         26.85994        60.72788         0.74220
H         25.57235        62.84831         0.41605
H         29.32665        56.60053         0.80708
H         28.10880        58.66772         1.01302
H         31.85247        52.12988         0.53721
H         30.56633        54.22723         0.85127
H         34.32649        47.91890         0.10625
H         33.08268        50.05268         0.33870
H         36.88508        43.73638        -0.89138
H         35.59736        45.79795        -0.37159
H         39.35058        39.37967        -1.10566
H         38.21452        41.51202        -0.24487
H         41.83679        35.22512        -1.61397
H         40.59440        37.23899        -1.11129
H         45.33317        31.78501        -0.66532
H         43.26560        32.79751        -1.41734
H         47.30364        32.94894        -0.07472
H         48.68603        35.09010        -0.41159
H         49.91986        37.25702        -0.52799
H         51.14463        39.39925        -0.69354
H         52.37385        41.52741        -0.79079
H         53.65339        43.69601        -0.66250
H         54.86609        45.83861        -0.27144
H         56.06591        47.94109        -0.03565
H         57.29067        50.06300         0.28090
H         58.54491        52.17453         0.51488
H         59.82784        54.33502         0.53568
H         61.10692        56.48833         0.50674
H         62.34469        58.63103         0.38059
H         63.58234        60.74518         0.33466
H         64.80650        62.91236         0.22341
H         65.93247        65.01126         0.58794
H         67.06782        67.14762         1.14486
H         68.21200        69.27023         1.59243
H         69.39969        71.42226         1.72735
H         69.35037        73.89442         1.75508
