         480
 CSIRO Nanostructure Databank - Neutral Graphene Oxide Data Set
C         38.39666        50.50722        -4.40709
C         37.29114        51.35435        -4.49669
C         38.54208        53.10080        -3.37491
C         37.36119        52.64309        -3.95928
C         40.82910        48.47654        -1.98787
C         41.08030        49.81231        -2.41782
C         39.56266        50.97075        -3.78765
C         40.94239        52.84888        -2.76270
C         39.68382        52.27766        -3.28976
C         41.15194        54.20342        -3.08361
C         42.32661        48.78199        -0.02122
C         41.30389        48.01448        -0.79987
C         42.49595        50.21080        -0.51262
C         41.79368        50.74298        -1.60833
C         42.84691        52.98395        -1.24843
C         41.87314        52.19147        -1.90808
C         43.00542        54.35725        -1.53989
C         42.18977        54.93485        -2.53042
C         44.93065        45.97957        -0.30983
C         43.71815        46.66795        -0.30882
C         44.88742        48.73741         0.15611
C         43.67973        48.04754        -0.07271
C         44.86207        50.19367         0.42040
C         43.57952        50.97074         0.11734
C         44.99845        53.10335         0.08314
C         43.61014        52.48088        -0.04139
C         45.09953        54.47339        -0.14602
C         44.05960        55.14750        -0.88778
C         45.40269        57.20129        -0.88482
C         44.18133        56.50394        -1.13900
C         47.38490        44.43017         0.29086
C         47.44585        45.87605        -0.16373
C         46.13724        46.63904        -0.06009
C         47.36451        48.77150         0.41467
C         46.12775        48.04308         0.15766
C         47.36102        50.15973         0.60163
C         46.14039        50.92743         0.49466
C         47.38025        53.04044         0.86146
C         46.13993        52.32417         0.47459
C         47.40325        54.54339         0.96485
C         46.15930        55.34411         0.54029
C         47.79413        57.29646        -0.27597
C         46.43773        56.63182        -0.20622
C         47.79668        58.79090        -0.06192
C         49.73067        44.39611         1.08655
C         48.43445        43.74269         0.76652
C         49.78390        45.87558         0.89874
C         48.58992        46.63635         0.44988
C         49.84961        48.72229         0.83513
C         48.59984        48.01363         0.54620
C         49.85603        50.12082         0.95153
C         48.61232        50.87064         0.82769
C         49.91049        52.96343         0.88574
C         48.62628        52.24899         0.90307
C         49.96058        54.45264         0.85467
C         48.73303        55.29362         1.18595
C         50.08274        57.31667         0.68768
C         48.87955        56.64769         0.53187
C         50.18267        58.73086         0.47584
C         48.95716        59.44518         0.21626
C         52.26820        41.49830         0.80566
C         51.08737        42.16419         0.92530
C         52.36579        44.33950         1.01232
C         51.03869        43.61529         1.18067
C         52.35571        45.77061         0.54299
C         51.08437        46.55142         0.60890
C         52.28864        48.66446         1.16290
C         51.09446        48.01533         0.85766
C         52.30460        50.07699         1.38141
C         51.09159        50.80722         1.20638
C         52.32789        52.92027         1.48840
C         51.13389        52.22692         1.22710
C         52.35025        54.37861         1.51135
C         51.24124        55.10923         1.20159
C         52.49518        57.29543         1.50995
C         51.38178        56.55515         0.81752
C         52.49427        58.68416         1.42873
C         51.41990        59.40796         0.77114
C         52.77838        61.45854         0.89545
C         51.61156        60.76921         0.48951
C         54.90029        40.08499         0.43874
C         54.80761        41.40612         0.82711
C         53.55877        42.15320         0.86771
C         54.87437        44.24624         0.89843
C         53.61169        43.54894         0.87460
C         54.95578        45.72003         0.58585
C         53.65468        46.52770         0.60026
C         54.71496        48.53514         1.87657
C         53.60028        47.96620         1.01961
C         54.80423        50.05213         1.81074
C         53.52675        50.78847         1.59966
C         54.82520        52.92252         1.47999
C         53.54042        52.18232         1.62584
C         54.88515        54.33522         1.92458
C         53.58270        55.09250         1.93510
C         54.90845        57.17289         2.12176
C         53.65443        56.56062         1.89776
C         54.95083        58.61521         2.36424
C         53.60865        59.43636         2.00802
C         54.91068        61.57985         2.30462
C         53.73395        60.85638         1.68892
C         55.02548        63.03746         1.92118
C         57.36317        40.08204         0.47752
C         56.15151        39.42705         0.27372
C         57.34962        41.44017         0.93379
C         56.05125        42.09744         1.33121
C         57.35014        44.28849         1.13592
C         56.06916        43.58304         1.07450
C         57.39540        45.68246         1.15059
C         56.09687        46.36903         1.34961
C         57.33263        48.54183         1.35197
C         56.07319        47.80781         1.72749
C         57.35363        50.02732         1.29596
C         56.10898        50.75863         1.65881
C         57.40935        52.92945         1.53064
C         56.12304        52.21333         1.35072
C         57.40103        54.31922         1.67741
C         56.16467        55.06190         1.83689
C         57.45673        57.15927         2.25960
C         56.14460        56.44011         2.01931
C         57.40323        58.64346         1.96334
C         56.23863        59.34290         2.24435
C         57.30478        61.42423         1.57544
C         56.19097        60.78780         2.03825
C         57.07791        62.58942         0.65245
C         56.06461        63.53859         1.24417
C         59.92035        37.72498        -1.04384
C         58.73237        38.35191        -0.77846
C         59.82940        40.10228         0.51253
C         58.66237        39.50808         0.08929
C         59.75811        41.28104         1.47348
C         58.54124        42.12507         1.17268
C         59.82324        44.25002         1.30764
C         58.57555        43.55079         1.25857
C         59.85792        45.70473         1.30296
C         58.62326        46.41275         1.28587
C         59.83426        48.56459         1.32259
C         58.62714        47.82660         1.36671
C         59.84199        50.01689         1.30841
C         58.63720        50.76006         1.35735
C         59.88166        52.88650         1.34920
C         58.63319        52.17784         1.42688
C         59.87503        54.31075         1.36129
C         58.65221        55.05168         1.58246
C         59.83653        57.21790         1.18364
C         58.64270        56.44139         1.66230
C         59.85482        58.67154         1.62153
C         58.67163        59.34350         1.77344
C         59.82306        61.58001         1.24958
C         58.65397        60.86040         1.94874
C         59.60642        62.66085         0.24860
C         58.32059        63.20795         0.06571
C         59.13302        64.63614        -1.70329
C         58.09471        64.21397        -0.88411
C         62.45306        36.24977        -1.32516
C         62.31717        37.39533        -0.49357
C         61.15711        38.17684        -0.47350
C         62.24939        39.82542         1.17763
C         61.17914        39.59252         0.06580
C         62.38811        41.33278         1.39496
C         61.05490        42.09570         1.53848
C         62.29023        44.26650         1.08336
C         61.02961        43.53375         1.30867
C         62.35466        45.68359         1.61887
C         61.06677        46.43102         1.36239
C         62.32465        48.56744         1.19629
C         61.07356        47.84503         1.32016
C         62.30683        49.96435         1.09579
C         61.08857        50.71706         1.21578
C         62.34927        52.86981         1.08556
C         61.09914        52.14651         1.21582
C         62.35359        54.29625         1.11955
C         61.11537        55.03787         1.27581
C         62.39827        57.15057         1.31889
C         61.11560        56.43325         1.32395
C         62.42800        58.63365         1.53775
C         61.15276        59.43897         1.85123
C         62.21885        61.34732         0.31834
C         61.12611        60.84293         1.19349
C         62.08065        62.61223        -0.34124
C         60.71361        63.14142        -0.51731
C         62.31853        65.25788        -1.99730
C         60.39933        64.07259        -1.53553
C         62.32237        66.58830        -2.41346
C         64.78759        35.82564        -0.67368
C         63.61848        35.50828        -1.41010
C         64.73851        36.95935         0.25128
C         63.40837        37.65670         0.54117
C         64.75934        39.81439         0.79030
C         63.53833        39.14175         0.80566
C         64.78471        41.30133         0.67147
C         63.56540        42.04671         0.93504
C         64.86417        44.24500         1.03966
C         63.57959        43.51192         0.87276
C         64.83178        45.69721         1.13846
C         63.60739        46.42436         1.20863
C         64.83003        48.56897         1.05306
C         63.58168        47.82901         1.11741
C         64.82501        49.96596         0.96982
C         63.54648        50.67914         0.61837
C         64.76610        52.86290         0.63715
C         63.55971        52.16353         0.89129
C         64.73119        54.27205         0.50832
C         63.55699        54.99860         0.80363
C         64.75737        57.16275         0.50733
C         63.58507        56.44117         0.79605
C         64.79396        58.59228         0.57816
C         63.68108        59.43075         1.18860
C         64.62545        61.37843        -0.02262
C         63.45707        60.70059         0.39539
C         64.54484        62.74258        -0.41584
C         63.27677        63.33662        -0.68415
C         64.50102        65.51793        -0.99051
C         63.33491        64.70319        -1.19428
C         64.51346        66.89332        -1.40055
C         63.39847        67.41222        -2.07094
C         67.23939        33.24163        -1.78355
C         66.05646        33.88574        -1.52507
C         67.28828        35.76088        -0.51857
C         66.02916        35.15814        -0.88926
C         67.30889        37.07359         0.01543
C         66.05647        37.68104         0.50943
C         67.25793        39.81431         1.07981
C         65.99480        39.12872         0.76706
C         67.38091        41.34662         1.03809
C         66.09398        42.07795         0.69666
C         67.35506        44.20722         1.10572
C         66.04780        43.53065         0.99079
C         67.34720        45.70770         1.14815
C         66.05771        46.43921         1.12937
C         67.37760        48.57287         1.30411
C         66.06496        47.83133         1.13608
C         67.33099        50.00995         0.82033
C         66.08645        50.77697         1.17040
C         67.18976        52.77691         0.10937
C         66.02031        52.14545         0.53374
C         67.14272        54.20214        -0.30969
C         65.82955        54.98595        -0.22872
C         67.15888        57.12795        -0.00558
C         65.97288        56.44932         0.15643
C         67.18917        58.57598        -0.03174
C         65.94472        59.28732         0.19034
C         67.06106        61.44663        -0.29427
C         65.89426        60.71227         0.00601
C         67.03080        62.85037        -0.36208
C         65.76040        63.51603        -0.43473
C         66.89786        65.74278        -0.13793
C         65.70326        64.91604        -0.53542
C         66.92116        67.13413        -0.72638
C         65.73556        67.69402        -1.25360
C         66.96333        69.74599        -1.68877
C         65.77409        69.03450        -1.69030
C         69.69718        31.86981        -2.48211
C         69.73534        33.11782        -1.82050
C         68.50095        33.80668        -1.42390
C         69.80567        35.62699        -0.30853
C         68.51672        35.05058        -0.77130
C         69.84737        37.06679         0.14788
C         68.53320        37.75600         0.32254
C         70.18240        40.11830         0.47296
C         68.45168        38.96852         0.99390
C         69.83087        41.45587         0.17068
C         68.63136        42.10515         0.66274
C         69.64347        44.27035         0.03644
C         68.55351        43.49353         0.57806
C         69.67555        45.69422         0.14567
C         68.55032        46.43980         0.68354
C         69.85924        48.54104         0.68234
C         68.55316        47.80659         0.74484
C         69.75093        49.99578         0.32379
C         68.49699        50.68909         0.44417
C         69.69691        52.82005        -0.03341
C         68.45704        52.10879         0.14960
C         69.72577        54.23688        -0.15216
C         68.44058        54.94765        -0.33239
C         69.65375        57.09144        -0.58769
C         68.47473        56.40073         0.06927
C         69.62516        58.60464        -0.66380
C         68.35486        59.27451        -0.30099
C         69.61018        61.49744        -0.52373
C         68.31866        60.72498        -0.51316
C         69.53374        62.96181        -0.32857
C         68.26266        63.61776        -0.37343
C         69.40702        65.77562        -0.17927
C         68.21381        65.02029        -0.32739
C         69.33581        67.21310        -0.14106
C         68.12563        67.87955        -0.65484
C         69.38682        69.99235        -1.42849
C         68.16624        69.18378        -1.22050
C         69.48522        70.80678        -2.57499
C         72.09470        31.88308        -2.76892
C         70.85634        31.25936        -2.94708
C         72.15891        33.10753        -2.10963
C         70.99669        33.73362        -1.62599
C         72.26421        35.85808        -1.03011
C         71.08841        34.98362        -0.82412
C         72.26764        37.17535        -0.76246
C         71.13960        37.87786        -0.11308
C         71.78393        40.04061        -1.30621
C         71.06359        39.35380        -0.29874
C         71.69052        41.41932        -1.41491
C         70.73504        42.16315        -0.67187
C         71.72215        44.36216        -1.27344
C         70.68588        43.60145        -0.67004
C         71.79759        45.72127        -1.08863
C         70.80364        46.41781        -0.34219
C         72.07646        48.55294        -0.43145
C         70.92381        47.82238        -0.09862
C         72.12535        49.93151        -0.27143
C         70.94049        50.67318         0.02288
C         72.14620        52.84891        -0.07930
C         70.93973        52.11923        -0.03833
C         72.15226        54.23111        -0.15440
C         70.94046        54.95638        -0.23215
C         72.09363        57.16265        -0.61463
C         70.95211        56.40621        -0.46050
C         72.06813        58.59741        -0.61129
C         70.90647        59.32449        -0.54731
C         72.07458        61.61303        -0.23974
C         70.84866        60.76006        -0.03882
C         71.98995        62.96081        -0.20786
C         70.71952        63.68043        -0.14857
C         71.79411        65.87169         0.38778
C         70.66114        65.10708         0.00170
C         71.67347        67.22754         0.62112
C         70.45711        67.89339         0.34100
C         71.53861        70.91658        -0.68217
C         70.45129        70.05274        -0.50867
C         71.59569        71.72558        -1.81812
C         70.57611        71.65360        -2.77187
O         51.79350        44.09160         2.34030
O         67.58961        44.92314         2.37265
O         55.57316        50.51499         2.99898
O         54.00527        59.06154         3.36959
O         70.80553        37.34058         1.19739
O         43.90328        50.57682         1.49838
O         61.89487        41.77403         2.69839
O         65.50896        41.70725        -0.58686
O         49.99610        53.75856        -0.42681
O         62.78575        44.08505        -0.28004
O         49.59717        45.31520         2.23964
O         70.42001        69.26576         0.65397
O         53.81203        47.62270        -0.37680
O         69.58013        39.52199         1.59511
O         69.03477        61.07519        -1.78210
O         61.33431        64.41397        -2.52109
O         57.14450        49.24768         0.05808
O         62.72811        57.75779         2.67665
O         47.11353        53.76052         2.17478
O         40.64602        50.08299        -3.71047
O         67.80696        54.54692        -1.58535
O         56.10917        46.78141         2.76478
O         55.40183        52.65609         0.14577
O         67.28029        40.67219         2.31256
O         70.61846        34.76742         0.54782
O         65.44004        36.76743         1.52455
O         60.88474        61.89486         2.20359
O         54.15516        54.53142         3.17504
O         51.61328        46.05576        -0.68374
O         69.44767        57.74869        -1.85940
O         56.42389        61.99558        -0.53360
H         55.55502        61.63779        -0.25074
O         48.84392        55.56616         2.61010
H         48.28917        54.89918         3.07897
O         41.90230        48.79285         1.36446
H         42.55740        49.34637         1.85593
O         45.50546        55.76275         1.77528
H         45.51551        54.98052         2.37335
O         68.80017        56.35357         1.49926
H         68.67469        57.25110         1.87404
O         61.62319        40.44556        -1.03757
H         61.00337        40.31940        -1.78673
O         54.21339        48.25969         3.20511
H         54.80584        48.71223         3.84541
O         62.89493        36.98615         1.74678
H         63.69054        36.78332         2.29635
O         59.49706        40.73866         2.79492
H         60.32161        40.25726         3.06326
O         62.44793        45.52566         3.07070
H         62.49910        46.41781         3.47368
O         54.73071        61.59824         3.74189
H         54.52856        60.67476         4.02979
O         61.17823        59.67423         3.28412
H         62.03841        60.10036         3.49336
O         51.82780        56.46409        -0.59616
H         51.26326        55.79154        -1.03905
O         67.61093        48.68403         2.76022
H         68.59306        48.79173         2.86752
O         48.20396        57.10216        -1.69639
H         49.06400        57.56250        -1.81031
O         61.74987        39.25929         2.40563
H         61.96238        38.28759         2.39633
O         70.31572        48.53937         2.12694
H         70.59790        47.62046         2.33106
O         56.00739        41.92500         2.80056
H         56.92937        41.96218         3.13811
O         59.65861        57.34261        -0.30420
H         59.57170        56.43240        -0.66352
O         55.42883        45.73587        -0.79477
H         55.15889        46.59771        -1.19055
O         64.19990        59.88872         2.48232
H         64.16061        59.10216         3.07577
O         66.76645        65.91764         1.32337
H         67.50159        66.50005         1.61210
O         47.75472        45.79512        -1.60168
H         47.89550        46.70807        -1.93120
O         65.30672        55.06258        -1.59638
H         66.09388        55.12479        -2.18867
O         57.67191        57.07831         3.71782
H         56.92690        57.54161         4.15737
O         66.16676        51.03553         2.62931
H         66.57367        50.22396         3.03035
O         70.65052        60.62887         1.41261
H         71.50224        60.34888         1.80949
O         42.86101        52.99924         1.10141
H         43.16224        52.49049         1.88733
O         58.76544        61.11022         3.37062
H         59.67001        60.80193         3.63332
O         63.46657        50.60168        -0.86716
H         63.34014        49.65702        -1.10255
H         38.36265        49.48704        -4.81052
H         36.36678        51.00366        -4.97514
H         38.57557        54.11805        -2.96076
H         36.48640        53.30531        -4.00672
H         40.15456        47.86128        -2.60016
H         40.48063        54.69242        -3.80257
H         40.96278        47.04863        -0.40306
H         42.32514        55.97857        -2.84048
H         44.92152        44.90199        -0.51957
H         42.79286        46.11087        -0.50407
H         45.53525        58.17954        -1.36956
H         43.40233        57.04122        -1.69574
H         46.44644        43.88451         0.11358
H         46.87292        59.36114        -0.23635
H         48.31435        42.67610         1.01216
H         48.95109        60.54239         0.29389
H         52.24254        40.40989         0.65248
H         50.14166        41.61508         0.80931
H         52.88379        62.52332         0.63935
H         50.84166        61.32727        -0.06007
H         53.99456        39.52708         0.15893
H         54.26392        63.70826         2.34703
H         56.14109        38.38940        -0.08788
H         56.14443        64.61862         1.04782
H         59.90281        36.79036        -1.62231
H         57.80374        37.93558        -1.19220
H         58.96536        65.36116        -2.50958
H         57.08042        64.61021        -1.02610
H         61.63769        35.99573        -2.01688
H         61.50370        66.96819        -3.03752
H         63.65315        34.68732        -2.13947
H         63.38168        68.45484        -2.41212
H         67.19590        32.26025        -2.27126
H         65.11260        33.39092        -1.78950
H         66.96382        70.77811        -2.06546
H         64.86941        69.53261        -2.06088
H         68.74449        31.34702        -2.63424
H         68.69541        70.76621        -3.33823
H         73.01529        31.40251        -3.12691
H         70.79620        30.28550        -3.45204
H         73.14353        33.56478        -1.94428
H         73.15228        35.42482        -1.51180
H         73.16651        37.76415        -0.99881
H         72.47574        39.49398        -1.96161
H         72.34298        41.93428        -2.13189
H         72.50921        43.85678        -1.84819
H         72.63759        46.27200        -1.53083
H         72.96090        48.04261        -0.83713
H         73.05436        50.45750        -0.52439
H         73.10821        52.32187        -0.03836
H         73.11479        54.75870        -0.18745
H         73.08311        56.68472        -0.59944
H         73.03949        59.11040        -0.54754
H         73.06110        61.13222        -0.31823
H         72.91464        63.55106        -0.28816
H         72.75743        65.37610         0.56811
H         72.52669        67.81050         0.99177
H         72.33135        70.95222         0.07629
H         72.44388        72.40787        -1.96611
H         70.62676        72.27346        -3.67720
