         600
 CSIRO Nanostructure Databank - Neutral Graphene Oxide Data Set
C         22.99509        27.64187        -0.24960
C         22.99554        28.94575        -0.70918
C         23.00367        31.75801        -1.57397
C         23.02185        33.09323        -1.90099
C         23.04943        36.01042        -2.25122
C         23.06130        37.39315        -2.26449
C         23.11957        40.36534        -2.09563
C         23.06900        41.67451        -1.67871
C         22.94513        44.34579        -0.36662
C         22.89218        45.62449         0.08362
C         25.35078        24.93584         0.81470
C         24.22219        25.59162         0.45649
C         25.37987        27.75830         0.27243
C         24.20721        27.02082         0.20788
C         25.36862        29.24603         0.06874
C         24.16370        29.74094        -0.69558
C         25.45343        31.74306        -1.36906
C         24.19797        31.06816        -1.21219
C         25.46703        33.12476        -1.75796
C         24.23912        33.82858        -1.93598
C         25.48009        35.97543        -2.04279
C         24.24548        35.26290        -2.10062
C         25.48078        37.38890        -2.09569
C         24.27845        38.10911        -2.16430
C         25.45429        40.15390        -1.45036
C         24.30854        39.56621        -1.95776
C         25.39595        41.49865        -0.89582
C         24.18651        42.30312        -1.05573
C         25.43774        44.32392        -0.41354
C         24.19095        43.65369        -0.63356
C         25.43481        45.78123        -0.19654
C         24.09429        46.47093         0.09495
C         25.34033        48.28274         1.20164
C         24.15448        47.68507         0.91235
C         27.92272        23.56056         1.37698
C         27.90136        24.94095         1.10683
C         26.60569        25.66009         1.08452
C         27.91628        27.77176         0.38474
C         26.62800        27.14760         0.75487
C         27.90431        29.08272        -0.19121
C         26.68260        29.78600        -0.44529
C         27.94700        31.59164        -1.54701
C         26.67270        31.02474        -1.10013
C         27.96547        33.11183        -1.93273
C         26.70050        33.85220        -1.86152
C         27.97952        35.97277        -1.89660
C         26.72165        35.25150        -1.93203
C         28.01288        37.38086        -1.92505
C         26.76337        38.17808        -2.15885
C         28.00381        40.20778        -1.38298
C         26.73154        39.37588        -1.21350
C         27.99706        41.57111        -1.06455
C         26.74190        42.22060        -0.62452
C         27.92049        44.38264        -0.39481
C         26.67650        43.67420        -0.51472
C         27.90394        45.72707         0.10372
C         26.66863        46.41960         0.28847
C         27.85702        48.35735         1.22922
C         26.62283        47.69864         0.86767
C         27.87992        49.66034         1.79107
C         30.35381        23.54266         1.34679
C         29.11826        22.87522         1.49839
C         30.35379        24.93559         1.04579
C         29.11609        25.64607         0.92933
C         30.37474        27.68403         0.25512
C         29.11757        27.05045         0.54931
C         30.38891        29.02290        -0.22662
C         29.16234        29.70951        -0.49067
C         30.42577        31.69134        -1.26534
C         29.19757        30.99560        -1.08762
C         30.44041        33.09547        -1.62128
C         29.22688        33.82142        -1.80265
C         30.43259        35.97205        -1.86096
C         29.21376        35.25435        -1.81734
C         30.44826        37.38165        -1.86130
C         29.22223        38.10580        -1.84097
C         30.43923        40.31070        -1.85718
C         29.22591        39.56312        -1.72346
C         30.41925        41.72782        -1.55696
C         29.19804        42.33814        -1.11973
C         30.36394        44.41338        -0.38343
C         29.15125        43.71450        -0.64762
C         30.35595        45.71981         0.19275
C         29.12054        46.38151         0.44046
C         30.32970        48.35961         1.32153
C         29.10015        47.70165         0.99779
C         30.32073        49.66486         1.88438
C         29.06720        50.28813         2.11149
C         32.82321        20.77366         1.96621
C         31.63389        21.44354         1.78295
C         32.83643        23.53156         1.38124
C         31.60577        22.83410         1.50253
C         32.83501        24.92039         1.02046
C         31.60597        25.61135         0.84508
C         32.84643        27.62445         0.13245
C         31.60630        26.98160         0.43205
C         32.84248        28.95015        -0.36875
C         31.63478        29.65550        -0.54015
C         32.89216        31.72367        -1.12901
C         31.64799        31.02553        -0.99689
C         32.89592        33.12683        -1.43846
C         31.67253        33.78994        -1.66834
C         32.94192        35.95415        -1.94180
C         31.67556        35.19730        -2.19639
C         32.92046        37.37754        -2.04904
C         31.68805        38.10690        -1.99466
C         32.86266        40.09554        -2.62223
C         31.65966        39.52968        -2.14423
C         32.82528        42.27417        -2.14014
C         31.61279        42.57628        -1.49383
C         32.81532        44.49781        -0.47205
C         31.60167        43.80800        -0.75404
C         32.81640        45.76484         0.18856
C         31.58140        46.39616         0.49156
C         32.80868        48.36992         1.32490
C         31.57676        47.70383         1.05746
C         32.80836        49.69159         1.87823
C         31.57255        50.33219         2.18012
C         32.80868        52.27925         2.97638
C         31.61044        51.62759         2.74958
C         35.35609        19.36658         2.43488
C         35.30791        20.77422         2.18264
C         34.06682        21.45387         1.90466
C         35.31774        23.55287         1.50886
C         34.07377        22.84470         1.60347
C         35.32499        24.91543         1.07831
C         34.08456        25.59670         0.81358
C         35.34476        27.60850         0.12025
C         34.08968        26.92973         0.34211
C         35.36541        28.92530        -0.38092
C         34.10798        29.52886        -0.94109
C         35.34224        31.72020        -1.08967
C         34.11665        31.03433        -0.97597
C         35.35088        33.12844        -1.36799
C         34.14059        33.83066        -1.55342
C         35.40194        35.95853        -1.92723
C         34.14743        35.25890        -1.81406
C         35.41342        37.38165        -2.17337
C         34.15939        38.06275        -2.20025
C         35.36381        40.11410        -2.75317
C         34.12301        39.43970        -2.56482
C         35.33568        42.30389        -2.15415
C         34.06647        42.84163        -1.76149
C         35.29637        44.51608        -0.47058
C         34.05833        43.93201        -0.85785
C         35.29143        45.77899         0.17382
C         34.04780        46.42408         0.46704
C         35.29080        48.40715         1.25585
C         34.04756        47.72832         1.03104
C         35.29233        49.72983         1.77078
C         34.04887        50.36887         2.10459
C         35.30421        52.39016         2.81471
C         34.04931        51.68345         2.64490
C         35.35117        53.70431         3.32277
C         37.76542        19.39739         2.84563
C         36.53387        18.70401         2.70752
C         37.72373        20.85675         2.71526
C         36.50549        21.52127         2.23133
C         37.79774        23.57557         1.65878
C         36.53899        22.88937         1.83690
C         37.79992        24.91535         1.15327
C         36.56467        25.59289         0.89706
C         37.81361        27.61540         0.20345
C         36.57692        26.94388         0.42141
C         37.82008        28.96091        -0.26890
C         36.58525        29.62713        -0.53459
C         37.81023        31.68871        -1.13751
C         36.58361        31.01076        -0.93026
C         37.80545        33.08235        -1.48389
C         36.60738        33.80374        -1.54967
C         37.83393        35.91502        -2.02913
C         36.60140        35.22363        -1.84296
C         37.82915        37.29991        -2.38306
C         36.63895        38.09902        -2.37374
C         37.76985        40.48183        -2.27304
C         36.62910        39.56310        -2.49568
C         37.75457        41.81132        -1.62953
C         36.52065        42.60305        -1.48870
C         37.72875        44.41020        -0.28883
C         36.52208        43.82357        -0.70965
C         37.74908        45.73202         0.20761
C         36.52492        46.42555         0.44489
C         37.76546        48.44040         1.11970
C         36.52898        47.75855         0.95490
C         37.76037        49.79412         1.56557
C         36.53131        50.42652         1.92410
C         37.75810        52.48887         2.52469
C         36.52885        51.76683         2.42987
C         37.77277        53.82569         3.03534
C         36.55000        54.39682         3.43436
C         40.22038        16.67899         3.57382
C         39.04162        17.36293         3.46706
C         40.25348        19.42543         2.83852
C         39.00338        18.74426         3.08007
C         40.28772        20.78572         2.45112
C         39.07028        21.59576         2.51979
C         40.26973        23.51953         1.53077
C         39.03306        22.91297         1.87273
C         40.27557        24.88171         1.09505
C         39.04050        25.57692         0.91308
C         40.28715        27.60384         0.26173
C         39.05262        26.93224         0.45414
C         40.30565        28.95645        -0.21619
C         39.05899        29.63976        -0.51685
C         40.31274        31.65520        -1.26628
C         39.04099        30.96542        -0.99219
C         40.33438        33.12333        -1.43551
C         39.07649        33.73092        -1.98237
C         40.27189        35.94530        -1.83878
C         39.06792        35.22890        -1.90504
C         40.26930        37.32307        -2.20828
C         39.08715        37.84360        -2.72440
C         40.27359        40.42315        -2.00561
C         39.06782        40.00519        -2.56533
C         40.22215        41.54482        -1.01850
C         38.93303        42.33076        -1.08953
C         40.25158        44.36310        -0.27832
C         38.96203        43.55961        -0.20020
C         40.23667        45.71959         0.13182
C         39.00072        46.40853         0.41977
C         40.24480        48.47950         0.92903
C         39.00283        47.76202         0.82390
C         40.23714        49.88104         1.25107
C         38.98812        50.53860         1.61347
C         40.17107        52.69930         1.97139
C         38.95958        51.87176         2.05466
C         40.23179        53.98533         2.70469
C         39.02511        54.56917         3.16005
C         40.27431        56.57098         3.79507
C         39.08255        55.86881         3.72428
C         42.67121        16.57754         3.25332
C         41.46774        17.30621         3.24426
C         42.71306        19.30031         2.50066
C         41.47989        18.68160         2.87026
C         42.72075        20.67925         2.08990
C         41.50539        21.40873         2.04694
C         42.73397        23.44982         1.38359
C         41.50271        22.79742         1.65792
C         42.74418        24.83712         1.02853
C         41.51721        25.54535         0.87979
C         42.76194        27.62027         0.40819
C         41.52797        26.93189         0.51556
C         42.77015        29.00820         0.05158
C         41.53455        29.62234        -0.31197
C         42.74061        31.83929        -0.42543
C         41.58803        30.97790        -0.88196
C         42.78342        33.18016        -1.10356
C         41.51823        33.82133        -1.42586
C         42.73134        35.94769        -1.71505
C         41.54038        35.26193        -1.65337
C         42.72209        37.41562        -1.60476
C         41.42897        38.17207        -1.89598
C         42.70456        40.30005        -1.69647
C         41.48848        39.65381        -2.01523
C         42.71245        41.71373        -1.34004
C         41.50728        42.35764        -1.03271
C         42.72518        44.39526        -0.33676
C         41.48123        43.71246        -0.56048
C         42.69149        45.72766         0.12880
C         41.47070        46.42221         0.30320
C         42.71378        48.52637         0.81796
C         41.47023        47.81043         0.69604
C         42.71027        49.93255         1.06703
C         41.44885        50.58736         1.26227
C         42.73886        52.64019         1.93772
C         41.43861        52.03760         1.51585
C         42.74391        53.99538         2.55321
C         41.45704        54.66177         2.85371
C         42.73628        56.69209         3.40413
C         41.48763        55.98138         3.36541
C         43.86729        17.18597         2.87714
C         45.19939        19.12859         1.98551
C         43.91027        18.53668         2.51084
C         45.18833        20.63602         1.88915
C         43.96833        21.33807         1.80226
C         45.20445        23.40228         1.24581
C         43.97082        22.73569         1.48450
C         45.21633        24.79711         0.91614
C         43.98760        25.50711         0.81671
C         45.24080        27.58117         0.40062
C         44.00576        26.91231         0.55436
C         45.27057        29.08243         0.41849
C         43.99565        29.72129        -0.05430
C         45.24409        31.73996        -0.71336
C         44.03618        31.07498        -0.44433
C         45.23623        33.12343        -1.10675
C         43.97657        33.82311        -1.29470
C         45.26719        35.96923        -1.51324
C         44.02595        35.20091        -1.91469
C         45.26810        37.45261        -1.81778
C         43.95276        38.18596        -1.75235
C         45.27390        40.32617        -1.87918
C         43.95125        39.56509        -1.73220
C         45.21839        41.72757        -1.31361
C         43.98163        42.39029        -1.11997
C         45.22736        44.34991        -0.32849
C         43.98113        43.71398        -0.58195
C         45.24540        45.67095         0.32674
C         43.93902        46.38821         0.54878
C         45.18097        48.54189         0.78768
C         43.95402        47.85238         0.69967
C         45.17529        49.96080         0.99867
C         43.94942        50.63683         1.12184
C         45.22555        52.78175         1.65846
C         43.94380        52.15006         1.17326
C         45.20285        54.13509         2.14345
C         43.99203        54.78229         2.51350
C         43.91647        56.12962         2.96582
C         47.59914        19.33070         2.61030
C         46.44034        18.63940         2.68957
C         47.66409        20.64983         2.01074
C         46.42672        21.31735         1.74161
C         47.67733        23.37184         1.15374
C         46.43780        22.70293         1.38063
C         47.68711        24.75375         0.77988
C         46.45342        25.46636         0.69033
C         47.71134        27.53917         0.15709
C         46.46286        26.87089         0.41933
C         47.71814        28.94110        -0.18679
C         46.51187        29.67572        -0.19455
C         47.71620        31.65450        -0.98254
C         46.50319        31.02187        -0.61941
C         47.68141        33.03176        -1.50540
C         46.42744        33.80036        -1.36189
C         47.77166        35.87958        -1.36338
C         46.45277        35.24805        -1.41460
C         47.93067        37.11989        -0.80830
C         46.17728        38.26198        -0.94260
C         47.69283        40.21219        -0.91999
C         46.40334        39.57708        -1.18522
C         47.70512        41.59746        -0.99033
C         46.45204        42.34750        -1.00685
C         47.72148        44.40526        -0.33272
C         46.45871        43.71008        -0.58049
C         47.70573        45.79750         0.05240
C         46.48312        46.46821         0.29884
C         47.66071        48.58353         0.66403
C         46.43778        47.84894         0.59410
C         47.64163        50.00435         0.94829
C         46.42999        50.68604         1.10206
C         47.68559        52.79091         1.62694
C         46.42918        52.10018         1.44662
C         47.64545        54.16481         2.03622
C         46.46514        54.80049         2.29777
C         50.15545        20.67289         2.00288
C         48.89757        21.31871         1.78968
C         50.14699        23.33684         1.04748
C         48.90803        22.67440         1.32062
C         50.14856        24.69629         0.59066
C         48.91836        25.41432         0.50628
C         50.16235        27.46553        -0.14366
C         48.92167        26.80910         0.16115
C         50.17374        28.85789        -0.45608
C         48.94474        29.58879        -0.52180
C         50.19976        31.65516        -1.13004
C         48.94695        30.96589        -0.90161
C         50.23852        33.03949        -1.46242
C         48.97783        33.72921        -1.82026
C         50.25108        35.92674        -1.56910
C         48.97676        35.24933        -2.02618
C         50.25848        37.33591        -1.34212
C         49.03440        38.01182        -1.04323
C         50.19602        40.12772        -0.87235
C         48.95821        39.43012        -0.90142
C         50.16579        41.57763        -0.44246
C         49.00836        42.35256        -1.07969
C         50.18834        44.43291        -0.28782
C         48.94511        43.75700        -0.51065
C         50.18544        45.81813         0.03766
C         48.93030        46.51175         0.20373
C         50.13717        48.63117         0.74632
C         48.88308        47.89436         0.51584
C         50.09782        50.09652         0.73033
C         48.89529        50.73948         0.98663
C         50.19107        52.75421         1.60166
C         48.90043        52.13633         1.35664
C         51.34173        21.31579         1.75441
C         52.61821        23.30819         0.94046
C         51.37994        22.65408         1.25883
C         52.58958        24.59927         0.34740
C         51.37965        25.32734         0.22751
C         52.59640        27.41021        -0.42137
C         51.38366        26.72704        -0.15265
C         52.63075        28.81899        -0.59572
C         51.40584        29.54261        -0.66167
C         52.66386        31.63748        -1.06361
C         51.42024        30.94823        -0.94612
C         52.68314        33.04600        -1.29344
C         51.45384        33.75202        -1.48483
C         52.68540        35.93440        -1.56322
C         51.45799        35.21255        -1.56138
C         52.71017        37.35043        -1.48603
C         51.48093        38.05739        -1.30647
C         52.68312        40.19490        -1.03997
C         51.43756        39.46502        -1.04658
C         52.67563        41.63387        -0.82668
C         51.47187        42.31716        -0.62216
C         52.67070        44.44485        -0.28800
C         51.44462        43.73289        -0.41656
C         52.64157        45.83420         0.02425
C         51.42600        46.50256         0.18875
C         52.67700        48.72770         0.37966
C         51.44756        47.92220         0.61147
C         52.63184        50.13374         0.37901
C         51.32796        50.90638         0.40584
C         51.35199        52.16143         1.23884
C         55.08315        23.31976         0.89372
C         53.88648        22.69674         1.19108
C         55.13089        24.56765         0.22323
C         53.84925        25.16369        -0.15792
C         55.12498        27.37924        -0.51673
C         53.84946        26.66344        -0.56741
C         55.11688        28.79667        -0.64208
C         53.88382        29.51064        -0.73906
C         55.13341        31.63414        -0.98458
C         53.89518        30.92354        -0.93307
C         55.14733        33.05429        -1.19169
C         53.92940        33.73417        -1.37606
C         55.25238        35.93965        -1.62480
C         53.92734        35.16878        -1.71531
C         55.20104        37.40639        -1.47039
C         53.94884        38.09224        -1.47136
C         55.13004        40.28930        -1.44836
C         53.88667        39.51310        -1.29757
C         55.15028        41.71008        -1.06171
C         53.92227        42.36639        -0.80634
C         55.16206        44.44810        -0.42725
C         53.92502        43.75668        -0.48407
C         55.20097        45.85503         0.01832
C         53.90317        46.56935         0.27869
C         55.11496        48.76661         0.07018
C         53.90360        48.04988         0.22987
C         55.04625        50.17525         0.06049
C         53.83290        50.83887         0.20005
C         57.60864        24.59325         0.04245
C         56.34708        25.25437        -0.06789
C         57.58126        27.37620        -0.46363
C         56.33757        26.66138        -0.38556
C         57.59102        28.79423        -0.63115
C         56.35715        29.50617        -0.70724
C         57.59884        31.63669        -0.82205
C         56.35710        30.92210        -0.84694
C         57.58649        33.06236        -0.82921
C         56.40462        33.77684        -1.09255
C         57.63520        35.93764        -0.93080
C         56.44239        35.20834        -1.18348
C         57.64189        37.37468        -1.04307
C         56.42894        38.07648        -1.29295
C         57.68611        40.27554        -1.11274
C         56.45898        39.53787        -1.44576
C         57.65069        41.69348        -1.04857
C         56.38457        42.39746        -0.98922
C         57.62665        44.53590        -0.69264
C         56.38250        43.79524        -0.69961
C         57.61512        45.96423        -0.54988
C         56.40923        46.65721        -0.25261
C         57.60518        48.77103        -0.31452
C         56.38305        48.05920        -0.14877
C         58.79507        25.26664        -0.12780
C         60.03758        27.38837        -0.46819
C         58.81213        26.67278        -0.35749
C         60.04912        28.75284        -0.64403
C         58.83530        29.50159        -0.71390
C         60.05283        31.69056        -1.00206
C         58.83217        30.92523        -0.81144
C         60.06779        33.03736        -0.88797
C         58.84562        33.76283        -0.38061
C         60.01763        35.97929        -0.44602
C         58.84902        35.25182        -0.62346
C         60.03255        37.37777        -0.57227
C         58.86986        38.09618        -0.86161
C         60.08243        40.29994        -0.76732
C         58.88586        39.56051        -0.91806
C         60.07634        41.68373        -0.80278
C         58.87084        42.41244        -0.91518
C         60.05814        44.62310        -0.96757
C         58.85472        43.86374        -0.86394
C         60.04550        45.99656        -0.90229
C         58.82802        46.69894        -0.67634
C         58.79225        48.11304        -0.55499
O         27.96964        32.04415        -2.93589
O         26.52867        26.67162         2.14741
O         42.91283        52.72105         3.36987
O         53.78919        25.59152        -1.55822
O         50.88172        48.12585         1.95618
O         54.70610        35.47956        -2.91520
O         41.86463        37.86931        -0.49835
O         44.60477        45.67169         1.65825
O         32.81503        41.36186        -3.20436
O         26.01676        41.54260         0.45693
O         35.33714        41.42244        -3.24026
O         55.84070        40.00395        -2.69871
O         46.91140        37.59337         0.03391
O         48.23889        33.07200        -2.90739
O         24.73853        46.56837        -1.21919
O         41.20301        31.01087        -2.28777
O         39.13693        38.98330        -3.52488
O         38.38907        21.56299         3.81496
O         40.66895        52.83653         0.56919
O         54.68525        46.02246         1.39866
O         49.32143        42.48448        -2.49661
H         48.51266        42.78473        -2.96181
O         26.85131        38.74377        -3.50198
H         26.88943        38.00203        -4.14115
O         34.10210        29.11571        -2.36844
H         33.31102        29.52264        -2.78293
O         43.75676        52.61480        -0.20158
H         44.49467        52.26312        -0.74215
O         45.35876        29.44294         1.86285
H         46.14099        28.97575         2.22757
O         38.92104        43.05716         1.18583
H         39.49416        42.25143         1.22570
O         45.78222        37.59006        -3.19475
H         45.32383        36.89990        -3.72909
O         26.70422        38.88980         0.14876
H         26.52761        39.67595         0.72040
O         51.14502        51.34760        -0.99649
H         50.36594        51.94404        -1.01159
O         49.89079        41.56888         0.99147
H         50.63707        41.12358         1.44402
O         48.90773        35.49847        -3.45574
H         48.49323        34.69852        -3.85734
O         44.16001        35.03327        -3.38379
H         44.82601        34.32703        -3.53277
O         45.30675        18.63916         0.59565
H         46.12650        19.02333         0.21757
O         40.21610        40.87634         0.31676
H         40.97274        40.24699         0.33080
O         45.54457        40.42902        -3.30118
H         45.70097        39.50613        -3.62007
O         39.11322        33.41842        -3.42900
H         39.39264        32.48166        -3.52263
O         31.63194        35.04982        -3.67758
H         30.84490        34.50096        -3.88629
O         58.87003        33.61655         1.09118
H         58.87474        32.65417         1.28309
O         42.44392        32.10533         0.98787
H         43.26079        32.44471         1.41092
O         25.23085        29.82817         1.43053
H         24.51283        29.33659         1.88396
H         22.07694        27.04016        -0.29879
H         22.06855        29.34568        -1.14370
H         22.03640        31.24110        -1.51972
H         22.06836        33.59799        -2.10448
H         22.08248        35.49547        -2.32392
H         22.10695        37.93301        -2.33076
H         22.22881        39.92344        -2.56240
H         22.14606        42.25087        -1.83245
H         22.01714        43.75738        -0.40501
H         21.94028        46.05529         0.42821
H         25.33924        23.83863         0.87732
H         23.29381        25.02995         0.27548
H         25.32354        49.20568         1.79713
H         23.21609        48.09241         1.31760
H         26.98215        23.01481         1.52804
H         26.94058        50.19937         1.97109
H         29.08451        21.80420         1.73324
H         29.02406        51.29885         2.53845
H         32.79110        19.69932         2.18821
H         30.69903        20.87435         1.86159
H         32.77919        53.28654         3.41217
H         30.67752        52.14207         3.01511
H         34.43564        18.77317         2.36190
H         34.42906        54.20997         3.63766
H         36.50835        17.61161         2.82099
H         36.52228        55.41923         3.83336
H         40.22481        15.62557         3.88907
H         38.10169        16.84924         3.71066
H         40.28681        57.59149         4.20402
H         38.16817        56.35069         4.09501
H         42.65801        15.51391         3.53107
H         42.73417        57.72919         3.76982
H         44.78260        16.57924         2.84725
H         44.82415        56.74860         2.98369
H         48.50769        18.90568         3.06030
H         46.43350        17.65320         3.17518
H         48.58411        54.72138         2.15774
H         46.49070        55.84432         2.63774
H         50.18145        19.63409         2.35800
H         50.22837        53.70842         2.14588
H         52.27932        20.76981         1.92305
H         52.31254        52.64372         1.47044
H         56.01938        22.82075         1.17984
H         53.92413        21.71656         1.68398
H         55.95556        50.77521        -0.07478
H         53.81804        51.93671         0.15644
H         57.63328        23.51243         0.23759
H         57.61882        49.86558        -0.23031
H         59.75046        24.72619        -0.06239
H         60.98476        26.83405        -0.39815
H         61.01385        29.27391        -0.70803
H         60.97198        31.16234        -1.29342
H         60.99999        33.59317        -1.06424
H         60.95238        35.46499        -0.18370
H         60.98496        37.89955        -0.41320
H         61.04291        39.78424        -0.63907
H         61.03125        42.21456        -0.69311
H         61.01368        44.10812        -1.13440
H         60.98030        46.56551        -1.00873
H         59.72778        48.68231        -0.65330
