         284
 CSIRO Nanostructure Databank - Neutral Graphene Oxide Data Set
C        -10.99157         0.58721        -1.50685
C         -9.98158         1.43553        -0.79757
C         -8.82835         0.69257        -0.16436
C         -7.58587         1.36235         0.37366
C         -6.32360         0.56595         0.83160
C         -4.99488         1.29301         1.18263
C         -3.73096         0.59183         0.63491
C         -2.40950         1.39755         0.57541
C         -1.35720         0.81306        -0.42460
C          0.04690         1.52516        -0.20092
C          1.17477         0.75270        -0.92596
C          2.54695         1.45627        -0.79795
C          3.78689         0.68805        -0.44007
C          4.98425         1.44055         0.06910
C          6.29248         0.68579         0.04697
C          7.56846         1.46842        -0.20444
C          8.78765         0.76135        -0.65124
C          9.97569         1.51219        -1.22924
C         11.17079         0.67556        -0.77990
C         -9.96791         2.88704        -1.18616
C         -9.28523         3.90472        -0.66941
C         -7.15585         2.67698        -0.19093
C         -6.33692         3.58982         0.67141
C         -5.05800         2.84130         1.04380
C         -3.81805         3.57383         0.60543
C         -2.58886         2.85901         0.15507
C         -1.36120         3.68662        -0.22948
C         -0.07009         3.00526        -0.60519
C          1.24895         3.75057        -0.72374
C          2.54986         2.98664        -0.79825
C          3.91870         3.71441        -0.68206
C          4.99272         2.92881         0.07013
C          6.34094         3.61026         0.06929
C          7.44038         2.90850        -0.72721
C          8.77437         3.65162        -0.67619
C          9.93993         2.97902        -0.81981
C         -8.82052         5.07638        -0.25980
C         -7.44189         5.70851        -0.51191
C         -6.46965         5.12806         0.57168
C         -5.08937         5.80319         0.59956
C         -3.79646         5.06127         0.73878
C         -2.50088         5.77550         0.53333
C         -1.37157         5.13333         0.11628
C         -0.04103         5.81059         0.18887
C          1.18065         5.29891        -0.60946
C          2.53218         5.92645        -0.12595
C          3.83533         5.17954        -0.15791
C          5.00663         5.69683         0.76469
C          6.36341         5.07087         0.35484
C          7.46496         5.86967        -0.25424
C          8.68603         5.16530        -0.84689
C         -7.47660         7.21881        -0.24046
C         -6.33398         7.91725        -0.01216
C         -5.01396         7.17163        -0.11839
C         -3.80227         7.96019         0.50622
C         -2.52874         7.24293         0.81885
C         -1.22681         8.02776         1.02312
C          0.01160         7.24033         0.63036
C          1.27510         8.02156         0.23793
C          2.48156         7.20301         0.75404
C          3.79386         7.99375         0.67852
C          5.07972         7.24364         0.77480
C          6.42136         7.95894         0.58564
C          7.39878         7.21664        -0.29018
C         -6.28044         9.35843         0.22265
C         -5.13142        10.07092         0.24448
C         -3.78527         9.46119        -0.09599
C         -2.58736        10.01535         0.55395
C         -1.24780         9.42753         0.26131
C         -0.01536        10.27562         0.74400
C          1.30227         9.49515         0.61554
C          2.49687        10.12609         0.52902
C          3.74675         9.38309         0.06911
C          5.07089        10.09291         0.25476
C          6.24204         9.43703         0.29369
C        -10.97561        -0.76019        -1.52977
C         -9.80019        -1.55245        -1.08301
C         -8.69082        -0.78566        -0.43652
C         -7.63547        -1.54858         0.32560
C         -6.33633        -0.84566         0.48925
C         -5.14762        -1.50188        -0.05485
C         -3.81948        -0.80773         0.09133
C         -2.59853        -1.49796        -0.45198
C         -1.31664        -0.73353        -0.50479
C         -0.03585        -1.43395        -0.17799
C          1.23401        -0.66997        -0.33123
C          2.49783        -1.44929        -0.52765
C          3.74897        -0.78443         0.00833
C          5.01069        -1.53892        -0.39393
C          6.27367        -0.78042        -0.26958
C          7.44370        -1.41758        -0.94429
C          8.68908        -0.64235        -1.14480
C          9.98098        -1.39521        -1.46316
C         11.13272        -0.67274        -0.78403
C         -9.87112        -3.02589        -0.88660
C         -8.84958        -3.74778        -0.34263
C         -7.67584        -3.03987         0.26255
C         -6.35662        -3.79968         0.41182
C         -5.16769        -3.01376        -0.18136
C         -3.84556        -3.74263        -0.13155
C         -2.56879        -2.97614        -0.17829
C         -1.28065        -3.66503        -0.51488
C         -0.02128        -2.94717        -0.12949
C          1.25028        -3.70694        -0.32513
C          2.49356        -2.93183        -0.61489
C          3.78221        -3.62802        -0.32129
C          5.04476        -2.88397        -0.58634
C          6.23588        -3.67030        -1.15971
C          7.57515        -2.93517        -1.04782
C          8.71755        -3.51280        -0.24794
C          9.68991        -2.91765        -1.27964
C         -8.86116        -5.21340        -0.26244
C         -7.71778        -5.94143        -0.13267
C         -6.42985        -5.19553        -0.20514
C         -5.15518        -5.93008        -0.45085
C         -3.83786        -5.19841        -0.50867
C         -2.54132        -5.93244        -0.65846
C         -1.23979        -5.15483        -0.64395
C          0.03476        -5.85408        -0.35086
C          1.22060        -5.19319        -0.45846
C          2.51113        -5.98227        -0.31081
C          3.75294        -5.10159        -0.14787
C          5.03322        -5.86071        -0.23876
C          6.30580        -5.14858        -0.59612
C          7.62129        -5.79923        -0.08562
C          8.75055        -4.80753         0.15702
C         -7.65612        -7.46181        -0.29426
C         -6.33591        -8.04399         0.29779
C         -5.10802        -7.45059        -0.44017
C         -3.79608        -7.96575         0.32025
C         -2.52486        -7.40108        -0.34115
C         -1.25657        -8.05317         0.08847
C         -0.04703        -7.19672         0.28348
C          1.16574        -7.76770         0.95678
C          2.44004        -6.89059         0.93339
C          3.74450        -7.69514         1.12960
C          5.01153        -7.20006         0.46677
C          6.34390        -7.80126         0.96530
C          7.42309        -6.84151         0.99892
C         -6.21966        -9.55607         0.21548
C         -5.02432       -10.18889         0.24910
C         -3.74754        -9.48701         0.37480
C         -2.56058       -10.10091         0.64009
C         -1.35315        -9.25830         1.03502
C          0.00921        -9.93901         1.14606
C          1.17985        -9.25018         1.18437
C          2.49144        -9.98495         1.49367
C          3.75033        -9.11306         1.60983
C          5.08821        -9.76147         1.80898
C          6.24616        -9.06513         1.74718
O          6.81076         4.09112         1.36169
O         -3.81426        -7.41885         1.60664
O          2.34054       -10.76051         2.68519
H          2.04051       -10.16532         3.40319
O          8.59815         1.10080         0.75872
O          4.67703         5.25113         2.08427
H          5.37018         4.59791         2.35741
O          2.56388        -2.11197        -1.82489
O         -1.77253        -8.24225        -1.26267
O          5.72398        -8.12725        -0.36227
O          2.35286        -5.98891         2.03156
H          2.27778        -6.50865         2.85938
O          1.87080         3.41925        -2.01300
O         -9.98189         1.08877         0.63796
O         -3.11062        -3.42267         1.09662
O          3.76830        -7.99244         2.57087
O         -7.36573         1.05396         1.75238
O          0.20310         6.14430         1.58498
O         -3.52153         7.70533         1.84002
O         -5.99171         3.28913         2.05365
O         -4.50985         5.59041         1.90591
O          4.67381         2.21410         1.28607
O          0.15756        -7.06368         1.74226
O          5.92962        -3.76363        -2.55665
H          6.77570        -3.83780        -3.05036
O         -5.93280        -5.35338        -1.57175
O         -3.29988        -5.53713        -1.83906
O         -1.94559         1.42657         1.93768
H         -2.28841         0.62153         2.39461
O         -4.71198         6.93287        -1.44520
O         -3.65046         3.11891        -0.79715
O          5.62200        -6.00002        -1.56417
O         -1.99448        -1.19004        -1.72473
O          4.48550         7.88912         1.95646
O          7.70505        -0.75872        -2.22950
O         -1.10398         8.30418         2.42607
H         -0.67037         7.52178         2.83909
O         -0.21982        10.76729         2.05694
H         -0.35389         9.99217         2.65301
O         -5.40113        -2.20103        -1.34175
O          3.46118         0.93873        -1.83189
O         -0.98199         3.43939        -1.63001
O          7.16848         2.82541        -2.09194
O          8.13339        -6.61447        -1.18672
H          7.33916        -7.00445        -1.62933
O         -8.06925        -2.32405         1.49718
O         -1.64101        -8.77875         2.37064
H         -2.46885        -8.21774         2.32329
O          0.69346        -3.41753         1.02981
O          3.47484         6.09381        -1.22815
O         -8.59118        -1.11509        -1.84963
O          0.83847         0.64913        -2.31245
H          1.67587         0.58639        -2.82636
O          2.29265         6.87144         2.12650
H          3.19072         6.75375         2.52647
O          3.76661        -4.22735         1.02011
O         -1.06236         9.17047        -1.13073
H         -1.94902         9.17721        -1.58577
O         -8.76249        -8.07830         0.34821
H         -8.60798        -8.00888         1.31473
O         -5.09191        -7.92498        -1.77215
H         -4.65522        -7.25055        -2.34102
O         -7.12895         2.81261        -1.40825
O          0.62671        -0.83913         0.97469
O         -3.52053        -0.57164         1.50537
O         -1.15707        -4.27377        -1.82195
O         -6.07613        -3.98610         1.80556
H         -6.63776        -3.35453         2.31425
O          6.44921        -0.30498         1.11522
O          8.51559        -3.12404        -2.21690
O         -6.97394         5.46576        -1.82465
H         -6.12059         5.96986        -1.94988
O          0.92011         5.74332        -1.94563
H          1.78474         5.81292        -2.40839
O         -7.11358         5.53149         1.79467
H         -6.53399         5.24512         2.53751
O          4.45355         3.78887        -2.00942
H          3.71995         4.04523        -2.61195
O         -4.85773         1.10787         2.60935
H         -5.65084         1.51259         3.02967
O         10.24860        -1.28327        -2.87481
H          9.37608        -1.25791        -3.32917
O         -6.35266        -7.62399         1.66427
H         -5.40716        -7.61267         2.00538
O          7.06967         7.93079         1.89548
H          6.37708         8.17989         2.54912
O          0.51412         1.61840         1.15643
H         -0.23502         1.49805         1.79202
O          9.87084         5.78577        -0.35006
H          9.81250         5.82608         0.62679
O         -3.65956         9.28854        -1.50032
H         -4.15716         8.44581        -1.77258
O         -1.86247         1.21257        -1.69482
H         -1.19257         1.00051        -2.38412
O          2.69166        -6.84559        -1.44452
H          2.82777        -6.30876        -2.25336
O          3.65062        -0.80333         1.44043
H          4.51611        -0.51235         1.81233
O          3.63993         9.20001        -1.36899
H          3.41805        10.06266        -1.77478
O          9.86858         1.51027        -2.66615
H          9.00591         1.93789        -2.88622
O          1.36875         8.02697        -1.19696
H          0.56452         8.47179        -1.55623
H         11.99865        -1.25278        -0.42844
H         12.04870         1.19191        -0.36028
H         10.88130         3.55180        -0.86070
H          8.67133         5.34382        -1.95815
H          8.22236         7.78563        -0.74851
H          7.17623        10.02174         0.30476
H          5.07275        11.19037         0.14653
H          2.55618        11.21781         0.67273
H          0.04696        11.16758         0.06779
H         -2.71659        10.36150         1.59434
H         -5.16586        11.15345         0.43632
H         -7.23569         9.87547         0.40464
H         -8.44647         7.74234        -0.24964
H         -9.42803         5.61252         0.49490
H        -10.58148         3.10790        -2.08061
H        -11.85312         1.11631        -1.94320
H        -11.81126        -1.30712        -1.99231
H        -10.76043        -3.54686        -1.27284
H         -9.82613        -5.72897        -0.38391
H         -7.71179        -7.70315        -1.38809
H         -7.14946       -10.14334         0.16915
H         -4.99372       -11.29007         0.22499
H         -2.51704       -11.19641         0.75320
H          0.03116       -11.02388         1.33944
H          2.69392       -10.71494         0.66383
H          5.08150       -10.76743         2.25532
H          7.18615        -9.52679         2.08473
H          8.20775        -6.96599         1.76130
H          9.73079        -5.27224         0.35411
H         10.55297        -3.56426        -1.55751
