         294
 CSIRO Nanostructure Databank - Neutral Graphene Oxide Data Set
C          1.50673         2.18907        -1.47009
C          1.32186         3.41646        -0.80556
C          2.71192         1.51141        -1.53643
C          2.45342         4.19016        -0.30570
C          1.23706         6.41562        -0.25492
C          1.20099         7.75977        -0.37070
C          2.48111         5.66710        -0.36048
C          2.46074         8.48237        -0.78943
C          1.26074        10.73353        -0.57298
C          1.27023        12.13557        -0.38778
C          2.46801        10.00102        -0.61082
C          2.42932        12.87160        -0.47080
C          1.20205        15.12162        -0.52699
C          1.14499        16.44973        -0.34958
C          2.43165        14.33507        -0.10746
C          2.31769        17.19714         0.23755
C          2.45064        18.64436        -0.20640
C          3.83006         1.92016        -0.61442
C          3.81865         3.44944        -0.42797
C          5.20661         1.36599        -0.90236
C          4.88167         4.30355        -0.91934
C          3.70205         6.33095        -0.26988
C          3.65736         7.83495        -0.04905
C          4.97136         5.66260        -0.46311
C          4.96410         8.49977        -0.43898
C          3.67673        10.70152        -0.59999
C          3.69950        12.18153        -0.91049
C          4.97003         9.98579        -0.60813
C          5.01234        12.87890        -0.57868
C          3.68185        15.08925        -0.57529
C          3.61933        16.53096        -0.22334
C          5.04318        14.38902        -0.78226
C          4.80352        17.15156         0.43209
C          3.61320        19.29813        -0.05862
C          4.79247        18.67021         0.66966
C          6.35508         1.88426        -0.35008
C          6.41851         3.21280         0.38024
C          7.62276         1.22353        -0.37937
C          7.49977         4.13711        -0.15089
C          6.24712         6.30442        -0.25381
C          6.22689         7.77725        -0.07003
C          7.47079         5.62655        -0.07260
C          7.50627         8.52600        -0.17641
C          6.23551        10.73964        -0.19899
C          6.20070        12.21811        -0.56306
C          7.47895         9.96469        -0.69750
C          7.51001        13.01972        -0.70622
C          6.20306        15.00962         0.01545
C          6.03579        16.34712         0.66456
C          7.38433        14.34384         0.06232
C          7.22079        17.18711         1.15157
C          6.13031        19.30418         0.38345
C          7.38000        18.46824         0.27963
C          8.80720         1.92178        -0.06112
C          8.81817         3.40841        -0.18170
C         10.01730         1.28179         0.18376
C         10.00956         4.16550         0.24797
C          8.74649         6.30271        -0.01269
C          8.79227         7.76638        -0.44706
C          9.95364         5.61859         0.22738
C          9.93404         8.55003         0.17406
C          8.78447        10.69933        -0.35132
C          8.79312        12.20243        -0.39917
C          9.90163         9.90650         0.26891
C         10.05363        12.99031        -0.01014
C          8.66616        15.08254         0.39128
C          8.51450        16.38270         1.19252
C          9.76101        14.13308         1.01739
C          9.78173        17.15754         1.29513
C          8.64654        19.23128         0.65091
C          9.79051        18.64246         1.10084
C         11.18728         2.01579         0.56364
C         11.11711         3.47000         0.69344
C         12.36347         1.32251         0.78630
C         12.18062         4.22287         1.46637
C         11.21508         6.32678         0.48053
C         11.26550         7.83572         0.18830
C         12.30199         5.66538         1.01193
C         12.22769         8.44163         1.22176
C         10.93586        10.71395         1.04305
C         11.22586        12.06434         0.38153
C         12.31325         9.98441         1.39017
C         12.35302        12.82923         1.00421
C         11.07210        14.90701         1.21692
C         11.06633        16.40850         1.08192
C         12.33217        14.18284         0.91859
C         12.01874        16.92301         0.05618
C         11.03497        19.44192         1.23284
C         12.31251        19.04274         1.18204
C         13.58212         1.98282         1.26636
C         13.52442         3.45749         1.57824
C         14.88274         1.30388         1.04692
C         14.83985         4.20586         1.57832
C         13.54344         6.37588         1.56275
C         13.61362         7.77051         0.95353
C         14.85598         5.65619         1.33009
C         14.87224         8.58209         1.33889
C         13.54339        10.58777         0.73190
C         13.37252        11.99570         0.28368
C         14.75688         9.95771         0.68830
C         14.68199        12.71278         0.12585
C         13.57975        15.01152         0.78806
C         13.35152        16.25202        -0.05398
C         14.77835        14.18691         0.36718
C         14.58662        17.04397        -0.29803
C         13.62577        18.84642         1.16136
C         14.52851        18.57279        -0.09524
C         16.06693         1.94267         1.15059
C         16.10914         3.40920         1.39321
C         17.40328         1.21261         1.19260
C         17.34441         4.13764         0.93996
C         16.04819         6.36716         1.05564
C         16.05473         7.76090         0.85227
C         17.19609         5.56158         0.50795
C         17.09516         8.41951        -0.01116
C         15.95145        10.63246         0.16623
C         15.91437        11.95038        -0.19024
C         17.30753         9.94751         0.30028
C         17.21252        12.74377        -0.22672
C         15.93912        14.94787        -0.15609
C         15.87962        16.29364        -0.30432
C         17.02993        14.14813        -0.83634
C         17.00930        17.07604        -0.92198
C         15.93787        19.09850         0.12368
C         17.07833        18.43615        -0.23346
C         18.46811         1.87227         0.29432
C         18.54666         3.37638         0.50931
C         19.84809         1.27088         0.47871
C         19.70174         4.07154        -0.11564
C         18.32743         6.21846        -0.21341
C         18.46424         7.71788         0.01179
C         19.58146         5.45815        -0.69356
C         19.47082         8.30253        -1.00939
C         18.39178        10.51297        -0.63214
C         18.30517        11.96644        -0.93012
C         19.49572         9.81554        -0.99797
C         19.53199        12.72431        -1.30719
C         18.32698        14.93188        -0.91891
C         18.30812        16.29856        -0.91577
C         19.56503        14.20333        -1.15031
C         19.55162        17.10399        -1.18905
C         18.38982        19.01359        -0.02107
C         19.56119        18.39374        -0.38351
C         20.96165         2.00944         0.29870
C         20.90770         3.42112        -0.09151
C         22.12218         4.16342        -0.36839
C         20.86499         6.27053        -0.58992
C         20.82053         7.63426        -0.80607
C         22.09962         5.51803        -0.52596
C         22.00423         8.45220        -0.97438
C         20.68579        10.48558        -1.68790
C         20.84029        11.95752        -1.20312
C         21.96077         9.73488        -1.39253
C         21.96068        12.76249        -1.81977
C         20.77306        14.86695        -1.30476
C         20.83281        16.30210        -1.07137
C         21.94476        14.11201        -1.74490
C         22.00330        16.95503        -0.77970
C         20.83939        19.00155        -0.11718
C         22.00582        18.32707        -0.35785
O         15.02497        13.27565         1.48822
O         11.40780        15.77038         2.35273
O          5.90357         3.39998         1.47451
O         12.19953        11.81861        -0.76740
O         13.83250        16.43200        -1.41583
O          4.97742        16.36949         1.67698
O          3.53260        16.13179        -1.61771
O         13.45211         2.49622         2.67233
O          9.22497        11.41001        -1.57240
O          6.92993         8.27160         1.12751
O         18.57588        12.27435        -2.35507
O         18.42411         3.86378         1.90559
O          9.13809        16.53843         2.49267
O         11.60011        17.62674        -0.86476
O          8.11508         3.76218        -1.43509
O         17.16081         5.76603        -0.96558
O         15.70136         3.83605         2.72423
O          5.06598         9.07029        -1.77913
O         17.78226        10.17496         1.59180
O          3.27441         3.77675         0.86797
O          2.23101        17.13004         1.68073
H          2.96093        17.68859         2.05429
O         19.00471         7.86434         1.33298
H         18.73733         8.77126         1.67747
O          7.51829        17.98709        -1.09335
H          7.90120        18.70767        -1.63606
O         11.64779         7.97473         2.45344
H         12.17096         8.36341         3.19216
O         13.83288         7.49279        -0.44639
H         13.91289         8.33699        -0.94083
O          4.51643        18.88593         2.08840
H          5.24737        18.41991         2.57354
O          9.26600        13.58863         2.23481
H          9.32022        14.29316         2.91794
O          5.54102         3.88521        -2.01924
H          6.23340         4.52379        -2.29330
O          3.68346        12.27084        -2.39625
H          4.20991        13.07243        -2.64788
O         20.45514        10.44689        -3.11810
H         19.68166        11.03946        -3.28887
O         10.27376        11.02810         2.29193
H          9.77925        10.23686         2.59548
O         18.03972         1.65209        -1.07220
H         18.68603         2.08852        -1.66770
O         11.69143         4.32108         2.85085
H         11.95236         3.47254         3.28758
O         12.56806        10.22878         2.80357
H         11.82786        10.80140         3.13270
O         11.66722         8.05888        -1.18235
H         10.90126         7.79919        -1.75332
O          6.92614        17.64771         2.48021
H          7.70376        17.41537         3.04732
O         17.85746         1.20399         2.54528
H         18.02352         2.13970         2.81132
O          3.46553         8.09109         1.36281
H          4.10422         7.54629         1.86938
O          7.41048         9.84688        -2.13390
H          7.89948        10.61739        -2.51363
O         17.67209        12.88381         1.13539
H         17.73314        11.96058         1.52654
O         19.47271        17.50808        -2.59766
H         18.51750        17.64469        -2.80913
O         16.69100        17.32625        -2.32505
H         15.75580        17.62360        -2.37914
O          3.48160         1.29583         0.65692
H          3.30110         2.03117         1.29504
O         13.96651        19.17752        -1.25521
H         13.11283        18.71430        -1.44506
O          5.35619        14.54855        -2.19042
H          5.02144        15.43872        -2.45822
O         15.00062         8.73852         2.75699
H         14.34393         9.41061         3.05220
O          7.65716        13.42358        -2.09200
H          8.17875        12.73015        -2.55480
O         16.51564        13.96679        -2.18148
H         17.20949        13.48356        -2.69397
O         13.46542         6.40345         3.00422
H         12.84868         5.67833         3.28691
O         21.13967        11.84410         0.21504
H         21.21255        12.74710         0.58912
O         19.39369         5.23919        -2.12715
H         19.20928         6.13069        -2.52213
O         13.94621        15.56815         2.08041
H         14.27211        14.81614         2.62567
O         19.02128         7.94964        -2.35822
H         19.49593         8.55720        -2.97543
O          9.01465         7.71286        -1.89032
H          8.50464         8.46232        -2.30033
O          6.31902        10.73908         1.24764
H          5.50957        11.15338         1.61381
O         10.50289        13.65213        -1.20277
H         11.05101        13.00537        -1.70615
O         16.51005         8.42165        -1.33331
H         16.47608         7.47720        -1.62697
O          2.50439        14.33685         1.34948
H          2.38615        15.26964         1.67042
O          2.58180         8.24155        -2.20993
H          3.39766         8.70526        -2.51957
O          9.11106        15.60293        -0.87978
H          8.81639        14.99291        -1.59865
H          0.64052         1.77250        -2.00612
H          0.36586         3.94142        -0.94666
H          2.77510         0.55438        -2.07348
H          0.31550         5.85623        -0.03633
H          0.24555         8.29277        -0.27315
H          0.29406        10.21409        -0.59151
H          0.31983        12.63647        -0.15240
H          0.34521        14.58655        -0.96330
H          0.24548        17.01571        -0.63696
H          1.59124        19.13926        -0.68569
H          5.26020         0.38873        -1.40937
H          3.70760        20.34578        -0.38243
H          7.66675         0.14104        -0.57403
H          6.23334        20.36390         0.67048
H         10.06821         0.18318         0.16751
H          8.65339        20.31406         0.44221
H         12.39029         0.23568         0.61958
H         10.86668        20.53640         1.23941
H         14.85735         0.21819         0.86338
H         14.13603        18.69553         2.13251
H         17.25846         0.15129         0.87200
H         16.02934        20.09883         0.57655
H         19.92000         0.20105         0.72400
H         18.43643        20.00410         0.46106
H         21.95455         1.54691         0.40640
H         23.08151         3.62665        -0.34243
H         23.05439         6.05501        -0.61562
H         22.98685         7.99801        -0.77941
H         22.90826        10.27838        -1.52508
H         22.84578        12.24617        -2.21944
H         22.80982        14.68507        -2.11059
H         22.95779        16.40783        -0.77263
H         20.86175        20.00713         0.32934
H         22.97070        18.80433        -0.13514
