         429
 CSIRO Nanostructure Databank - Neutral Graphene Oxide Data Set
C          1.12758         3.80630         0.33274
C         -0.04986         4.54346         0.34625
C          1.16261         6.56297         1.01107
C         -0.03981         5.90433         0.66925
C          1.20057         7.99843         1.32797
C         -0.05560         8.73273         1.44610
C          1.14481        10.86261         1.79325
C         -0.08965        10.05923         1.67619
C          1.14061        12.28547         1.29303
C         -0.08307        12.91968         0.77226
C          1.17704        14.91972         0.12368
C         -0.05464        14.16586         0.24518
C          1.18591        16.21519        -0.43234
C          0.01526        16.91940        -0.84752
C          1.22269        19.03345        -1.31406
C          0.03346        18.23841        -1.25205
C          1.22496        20.43392        -1.35358
C         -0.01905        21.17333        -1.34798
C          1.18136        23.28237        -0.99757
C         -0.06152        22.51341        -1.16769
C          1.18005        24.79993        -1.00620
C         -0.09638        25.54406        -1.10869
C          1.07639        27.70375        -1.38010
C         -0.14669        26.87922        -1.22594
C          1.06141        29.12503        -0.96632
C         -0.09080        29.79415        -0.65525
C          1.04097        31.91182        -0.12398
C         -0.11943        31.19072        -0.33581
C          1.06435        33.29033         0.29459
C         -0.09554        34.06306         0.34181
C          1.11693        36.08811         1.00412
C         -0.08863        35.40689         0.75212
C          1.13236        37.50617         1.24412
C          3.58302         3.70905         0.63205
C          2.35950         4.43521         0.64349
C          3.63869         6.44527         1.36183
C          2.35902         5.81535         1.00149
C          3.67588         7.94467         1.58748
C          2.38834         8.66566         1.51285
C          3.68684        10.82476         1.36762
C          2.46774        10.11276         1.95105
C          3.67375        12.20729         1.12097
C          2.42621        12.93629         0.96426
C          3.66303        15.01064         0.54573
C          2.40164        14.24743         0.50508
C          3.68952        16.40784        -0.01810
C          2.47221        16.88746        -0.71715
C          3.76015        19.09104        -1.07550
C          2.50632        18.32100        -1.21573
C          3.75305        20.48679        -1.32006
C          2.47099        21.18810        -1.38219
C          3.65047        23.37472        -1.56305
C          2.44003        22.57647        -1.31482
C          3.64768        24.84883        -1.37445
C          2.44502        25.51591        -1.30303
C          3.65956        27.72815        -1.18208
C          2.40091        26.99096        -1.44243
C          3.63208        29.10632        -0.96258
C          2.34783        29.91304        -1.11283
C          3.61608        31.84924         0.03428
C          2.32092        31.14583        -0.21605
C          3.61348        33.28239         0.36775
C          2.33265        33.87213         0.90266
C          3.56359        36.08728         0.94374
C          2.35390        35.38238         0.92450
C          3.57001        37.51885         1.15366
C          2.31044        38.19081         1.33597
C          6.04332         3.63516         0.77064
C          4.83099         4.35204         0.78136
C          6.09809         6.48291         0.95390
C          4.89052         5.77397         0.99870
C          6.12324         7.93638         1.05777
C          4.93791         8.66126         1.31086
C          6.15146        10.78056         1.06190
C          4.91556        10.09138         1.24667
C          6.16737        12.20822         0.99934
C          4.92603        12.90216         0.92365
C          6.14638        15.01373         0.58518
C          4.93559        14.29581         0.68390
C          6.14135        16.38893         0.11447
C          4.98206        17.04088        -0.31634
C          6.18472        19.15388        -0.80227
C          4.97097        18.42227        -0.76718
C          6.20812        20.54089        -1.07686
C          4.97951        21.20339        -1.32766
C          6.22768        23.42847        -1.42549
C          4.98610        22.64666        -1.62600
C          6.16151        24.88833        -1.46258
C          4.91456        25.56852        -1.40362
C          6.11406        27.72327        -1.19813
C          4.89104        26.99548        -1.24709
C          6.07594        29.13493        -1.04190
C          4.86310        29.82482        -0.83128
C          6.03285        31.95727        -0.34044
C          4.86571        31.22905        -0.44936
C          6.05378        33.34882         0.07113
C          4.79736        34.00123         0.38620
C          6.01948        36.13758         0.69147
C          4.81473        35.41672         0.70375
C          6.02301        37.56592         0.94616
C          4.77243        38.21812         1.17406
C          8.47365         3.56948         0.89944
C          7.27950         4.31199         0.79703
C          8.53877         6.43068         0.44802
C          7.32089         5.76142         0.73162
C          8.56778         7.90401         0.49234
C          7.36546         8.62601         0.84431
C          8.60492        10.79511         0.87198
C          7.37680        10.05588         0.92704
C          8.65695        12.22108         1.00453
C          7.39968        12.94345         1.00880
C          8.60080        15.14518         1.11820
C          7.37597        14.35048         0.88342
C          8.50692        16.58001         0.73534
C          7.39237        17.08876         0.08291
C          8.70972        19.21686        -0.51521
C          7.43257        18.41955        -0.56203
C          8.64663        20.68339        -0.67498
C          7.45610        21.31110        -1.00341
C          8.66357        23.55232        -1.02451
C          7.40764        22.75985        -1.16454
C          8.68092        24.91707        -1.63675
C          7.37982        25.64167        -1.48672
C          8.62352        27.76839        -1.31131
C          7.36548        27.03228        -1.34467
C          8.61980        29.15146        -1.04533
C          7.33922        29.87614        -1.07162
C          8.52723        31.89748        -0.02104
C          7.31235        31.32591        -0.71054
C          8.55416        33.41510        -0.25551
C          7.24530        34.07188         0.12457
C          8.48183        36.21067         0.40297
C          7.26455        35.47442         0.41748
C          8.47712        37.65166         0.63000
C          7.22124        38.28094         0.92437
C         10.94194         3.51303         0.78946
C          9.71475         4.20694         0.71365
C         10.92266         6.04226        -0.25008
C          9.70246         5.59350         0.30121
C         10.97081         8.18274        -0.24045
C          9.74208         8.68060         0.33829
C         11.06817        10.73780         0.67208
C          9.80821        10.07252         0.67396
C         11.11482        12.14011         0.73746
C          9.90885        12.89116         0.94539
C         11.31574        15.01395         0.92252
C          9.98448        14.35542         1.18111
C         11.52491        16.34893         1.17114
C          9.61719        17.46829         0.94669
C         11.15274        19.15719        -0.14727
C          9.81671        18.65165         0.28726
C         11.19425        20.65123        -0.27743
C          9.90894        21.42012        -0.40532
C         11.27230        23.52230        -1.05145
C          9.96160        22.89107        -0.70927
C         11.31339        24.92951        -1.42310
C         10.00100        25.64964        -1.75059
C         10.93412        28.02778        -1.85082
C          9.85727        27.13851        -1.64334
C         11.06880        29.29665        -1.30953
C          9.83459        29.91643        -0.90406
C         11.06975        32.04997        -0.59985
C          9.80082        31.25481        -0.49055
C         11.03826        33.39458         0.10369
C          9.73637        34.05451         0.46577
C         10.94820        36.24952         0.27639
C          9.73996        35.55163         0.29292
C         10.92840        37.73791         0.04488
C          9.66269        38.36662         0.57121
C         13.39886         3.48057         0.69610
C         12.19611         4.15975         0.57141
C         13.40314         6.29397        -0.07671
C         12.18320         5.53097         0.07606
C         13.42505         7.80273        -0.46169
C         12.22521         8.60220         0.05218
C         13.57939        10.65483         0.31996
C         12.34725         9.91706         0.77966
C         13.61219        12.03190         0.29374
C         12.40310        12.81287         0.55009
C         13.77010        14.86280         0.38568
C         12.46422        14.19405         0.56865
C         13.87782        16.34552         0.42272
C         12.70499        17.21936         0.80965
C         13.68317        19.12781        -0.71192
C         12.42759        18.37368        -0.18091
C         13.67169        20.62461        -0.48271
C         12.47965        21.34560        -0.53921
C         13.75064        23.35635        -1.12065
C         12.43761        22.75652        -0.86801
C         13.84031        24.85354        -1.29872
C         12.56196        25.57865        -1.41105
C         13.80217        27.71938        -1.00913
C         12.81523        26.96945        -1.65334
C         13.69522        29.15420        -0.83003
C         12.44555        29.99707        -1.24560
C         13.50748        31.91421         0.12322
C         12.25029        31.12798        -0.20284
C         13.47889        33.39145         0.33813
C         12.19309        34.11334         0.24734
C         13.42230        36.23962         0.51094
C         12.19085        35.55451         0.37224
C         13.39535        37.70448         0.59227
C         12.21299        38.39687         0.46507
C         15.76305         3.41295        -0.20691
C         14.70726         4.18229         0.55806
C         15.87555         6.25125        -0.14344
C         14.60139         5.61229         0.06706
C         16.00125         7.72605         0.10993
C         14.71171         8.49290        -0.03702
C         16.12460        10.53867         0.29718
C         14.77646         9.84759         0.14388
C         16.06189        11.97386        -0.15029
C         14.87682        12.69898        -0.06133
C         16.17625        14.81106        -0.29752
C         14.91842        14.11978        -0.16439
C         16.23655        16.23866        -0.28677
C         14.93290        16.94029        -0.49540
C         16.18388        19.09402        -0.35654
C         14.98630        18.43025        -0.38207
C         16.19041        20.54387        -0.46114
C         14.96315        21.27066        -0.55223
C         16.19518        23.37234        -0.87706
C         14.97905        22.66673        -0.73976
C         16.25165        24.82529        -0.74689
C         15.07454        25.55558        -0.87111
C         16.09565        27.67122        -0.12898
C         14.99311        26.98476        -0.58125
C         15.98610        29.11033         0.28894
C         14.79813        29.83745        -0.30396
C         15.98440        31.99050         0.17444
C         14.80712        31.25557        -0.06267
C         15.96734        33.42290         0.36097
C         14.74074        34.14565         0.37333
C         15.89046        36.25755         1.04343
C         14.65861        35.54060         0.56253
C         15.86956        37.74365         0.77179
C         14.64927        38.40398         0.70799
C         18.03635         3.35746        -1.20024
C         16.90840         4.05617        -0.58921
C         18.32494         6.15663        -0.48344
C         17.00145         5.50300        -0.40564
C         18.40844         7.60756        -0.63865
C         17.10788         8.36900        -0.73599
C         18.50551        10.44994        -0.57811
C         17.25838         9.81929        -0.39961
C         18.57979        11.87836        -0.53074
C         17.29228        12.62749        -0.71902
C         18.63302        14.75944        -0.40115
C         17.38290        14.09134        -0.40832
C         18.67233        16.18837        -0.28952
C         17.44610        16.92925        -0.26609
C         18.67604        19.06212        -0.36541
C         17.46683        18.38632        -0.31896
C         18.77354        20.53355        -0.74575
C         17.41106        21.21463        -0.67787
C         19.13680        23.60456        -0.41057
C         17.33573        22.56462        -1.02552
C         18.81257        24.88635         0.04711
C         17.44053        25.46836        -0.10897
C         18.59747        27.67619         0.39186
C         17.30984        26.93285         0.24810
C         18.57934        29.18686         0.33486
C         17.27850        29.90181         0.19035
C         18.57310        32.00492         0.17761
C         17.25297        31.26755         0.19690
C         18.46635        33.49765         0.43132
C         17.20693        34.16182         0.47800
C         18.37884        36.30828         0.71588
C         17.18099        35.56762         0.67124
C         18.33719        37.75478         0.78644
C         17.09970        38.43537         0.75534
C         19.24125         3.93980        -1.39749
C         20.67789         6.07456        -1.44798
C         19.52766         5.31845        -0.94526
C         20.76432         7.42175        -1.26636
C         19.62910         8.22855        -0.86009
C         20.92609        10.38330        -0.85935
C         19.70551         9.68616        -0.81224
C         20.98906        11.76452        -0.70431
C         19.81119        12.55008        -0.57797
C         21.06413        14.72567        -0.45024
C         19.85699        14.01444        -0.48933
C         21.09735        16.11980        -0.33761
C         19.91601        16.87846        -0.25921
C         21.06346        19.06425         0.10817
C         19.91906        18.33797        -0.19576
C         21.03379        20.47660         0.29057
C         19.94051        21.25741        -0.01559
C         20.83399        23.31332         1.22253
C         20.00246        22.70652         0.24725
C         20.77940        24.68978         1.45429
C         19.75664        25.50809         0.91549
C         20.75205        27.72487         1.55479
C         19.72263        26.96684         1.04793
C         20.71573        29.16121         1.55140
C         19.69728        29.88876         0.99642
C         20.90041        32.12588         1.00029
C         19.58355        31.39364         1.16709
C         20.90790        33.44197         0.71157
C         19.66268        34.20205         0.58914
C         20.82857        36.41081         0.73517
C         19.64842        35.63888         0.67305
C         20.77534        37.80691         0.80475
C         19.55627        38.47561         0.82086
O         10.49792        21.17036         0.92203
O         10.84362         7.11551        -1.14593
O          3.71248         7.01586         2.72305
O          1.03245        11.95774         2.75642
O          3.50903        16.20078         1.42206
O         19.26932         5.56868         0.47594
O          9.33269        25.05024        -2.93436
O         11.50184        18.24656        -1.29345
O          9.27476        14.80976         2.36500
O         14.30964        15.63076         1.61071
O          8.35781        18.45203        -1.72364
O          1.73703        27.47658        -2.69187
O          9.20887        23.61707         0.34204
O          2.95065        30.97671         1.09093
O         13.42026        32.44541         1.50816
O         10.56407        17.05830         1.88673
O         12.02338        27.58583        -2.60873
O          1.25885        24.05046         0.27289
O         18.96545        28.38157        -0.84196
O          2.66826        17.17090        -2.13420
O         17.06443        25.92643         1.26790
O          7.41356        30.98312        -2.11784
O         18.47844        23.15817        -1.56794
O          4.27650        23.01041        -2.85536
O         13.95856        23.95861        -2.45650
O          2.74490        10.06111         3.38034
H          2.39100        10.89727         3.76230
O         19.14941        31.82540        -1.14250
H         18.50019        32.13541        -1.80687
O         15.70995        29.04658         1.73977
H         15.47860        29.95466         2.03394
O          2.36197        30.40317        -2.48714
H          2.24987        29.61534        -3.06740
O         13.40539         7.85019        -1.91338
H         12.53359         7.48681        -2.19213
O         19.16065        20.52773        -2.15443
H         19.19069        21.46907        -2.44199
O         14.48857        16.58350        -1.84848
H         14.30608        17.42762        -2.33808
O         16.47422        10.56361         1.72158
H         16.57712         9.61572         1.99293
O         15.24829         4.28756         1.94073
H         16.18288         4.57972         1.86060
O         11.87962        30.43498         1.00735
H         12.12929        31.01726         1.76183
O         12.77261        30.53782        -2.53490
H         12.70364        29.80940        -3.18781
O          8.30981        31.58291         1.37679
H          8.86202        32.19877         1.91933
O         10.86257        37.93520        -1.42715
H         10.06152        37.46395        -1.74256
O         11.22106        32.42717        -1.99887
H         10.42512        32.97083        -2.22511
O         15.82640        36.14601         2.51767
H         16.64733        36.54898         2.87283
O         12.53826         9.63436         2.20621
H         12.69300        10.48889         2.66195
O          8.75883        33.63434        -1.67983
H          8.11732        33.07113        -2.16938
O         13.10907        17.94082         2.00064
H         13.51155        17.27916         2.60829
O         17.08403        12.57493        -2.19797
H         16.34212        13.18576        -2.40270
O          9.55519        33.83364         1.91014
H         10.33918        34.20861         2.36576
O         16.42825         7.84253         1.50875
H         15.77849         7.35730         2.06149
O          2.28749        33.44057         2.31635
H          2.42130        32.46077         2.30220
O         16.66066         8.26222        -2.12592
H         17.23387         8.83814        -2.67445
O         13.63791        19.06599        -2.18441
H         12.68354        18.94324        -2.42616
O         19.07366        31.64646         2.50267
H         19.71792        31.29131         3.14948
H          1.11525         2.73841         0.07315
H         -1.00291         4.05708         0.09539
H         -0.99157         6.45028         0.64792
H         -1.00363         8.18319         1.38743
H         -1.05227        10.57146         1.81008
H         -1.04113        12.39287         0.87696
H         -0.99419        14.61649        -0.10168
H         -0.96241        16.42234        -0.78296
H         -0.93266        18.70884        -1.48147
H         -0.96451        20.62392        -1.44896
H         -1.03050        23.02608        -1.10489
H         -1.03177        24.98083        -0.98495
H         -1.12436        27.38199        -1.24259
H         -1.05396        29.26374        -0.65545
H         -1.10331        31.66172        -0.20775
H         -1.05315        33.62886         0.01929
H         -1.03611        35.96393         0.78253
H          0.17208        38.03279         1.34571
H          3.55926         2.62511         0.44805
H          2.31344        39.27498         1.52105
H          6.02912         2.53641         0.73531
H          4.76467        39.30518         1.34574
H          8.42933         2.48652         1.08247
H          7.20466        39.36619         1.10615
H         10.93547         2.44815         1.06305
H          9.64530        39.45593         0.73002
H         13.40423         2.42976         1.02188
H         12.23335        39.49779         0.49111
H         15.67580         2.31994        -0.30061
H         14.63538        39.50459         0.66719
H         17.87484         2.31531        -1.51483
H         17.09724        39.53292         0.66999
H         20.04586         3.38573        -1.90481
H         21.48885         5.53029        -1.95481
H         21.67584         7.93944        -1.59758
H         21.86590         9.82954        -0.99167
H         21.97427        12.24903        -0.72570
H         22.02125        14.19009        -0.51285
H         22.07473        16.62200        -0.33459
H         22.01007        18.54341         0.30791
H         21.94365        20.95330         0.68507
H         21.55807        22.70710         1.78484
H         21.50761        25.13307         2.14814
H         21.62829        27.23690         2.00494
H         21.54741        29.68441         2.04841
H         21.84815        31.58512         1.14245
H         21.86812        33.97042         0.62400
H         21.81122        35.92134         0.71229
H         21.71201        38.38088         0.83918
H         19.52781        39.57376         0.86439
