         424
 CSIRO Nanostructure Databank - Neutral Graphene Oxide Data Set
C          1.48670         1.95404         1.78687
C          1.24532         2.90431         0.77580
C          2.78939         1.65133         2.12545
C          2.31239         3.60380         0.21900
C          1.02274         6.49506        -0.50370
C          1.05322         7.88564        -0.31020
C          2.19777         5.75751        -0.59508
C          2.26019         8.57662        -0.39425
C          1.12983        10.78114        -0.36326
C          1.14988        12.14714        -0.19721
C          2.32013        10.00999        -0.31067
C          2.36105        12.83296         0.10674
C          1.17815        15.02616         0.35087
C          1.19603        16.41667         0.43543
C          2.36430        14.27407         0.29942
C          2.41840        17.12542         0.44758
C          2.44217        18.56568         0.44943
C          3.88244         2.32144         1.49905
C          3.65925         3.43542         0.62065
C          5.17912         1.79214         1.62861
C          4.79229         4.19769         0.09929
C          3.50875         6.32751        -0.49607
C          3.49645         7.81010        -0.66930
C          4.71371         5.60633        -0.33588
C          4.81160         8.57334        -0.57977
C          3.56926        10.69450        -0.11746
C          3.55956        12.09577         0.15432
C          4.80288         9.98400        -0.16724
C          4.81921        12.75145         0.65686
C          3.63127        14.95961         0.40293
C          3.63942        16.40625         0.44141
C          4.82607        14.24364         0.46240
C          4.88143        17.11566         0.42062
C          3.62042        19.25261         0.38671
C          4.88056        18.55987         0.34280
C          6.22775         2.32040         0.85902
C          6.04791         3.57106         0.17393
C          7.45963         1.61600         0.80230
C          7.22947         4.15681        -0.55697
C          5.98913         6.34387        -0.45098
C          6.03429         7.78058        -0.46039
C          7.20502         5.65427        -0.52410
C          7.27964         8.49561        -0.40903
C          6.05872        10.66088        -0.02389
C          6.08776        12.06929         0.20582
C          7.27302         9.94024        -0.22681
C          7.30099        12.79895         0.09533
C          6.11701        14.94974         0.76450
C          6.09859        16.41717         0.43397
C          7.33600        14.22384         0.25046
C          7.32462        17.10544         0.22643
C          6.08729        19.24934         0.25209
C          7.32555        18.55950         0.15994
C          8.62371         2.20163         0.26812
C          8.56647         3.54754        -0.18554
C          9.86651         1.50076         0.27945
C          9.77976         4.26390        -0.39932
C          8.44743         6.35631        -1.00539
C          8.47917         7.80496        -0.59323
C          9.73371         5.63637        -0.66651
C          9.79766         8.50479        -0.40128
C          8.50879        10.66788        -0.33716
C          8.51501        12.10703        -0.22068
C          9.69668         9.98514        -0.62952
C          9.74771        12.82458        -0.27597
C          8.52573        14.94913         0.06371
C          8.51830        16.38327         0.05944
C          9.77049        14.24428        -0.13354
C          9.74607        17.11213        -0.42175
C          8.54200        19.25556         0.09250
C          9.77675        18.57723        -0.04311
C         11.05231         2.11406        -0.12262
C         11.05320         3.54397        -0.41356
C         12.28779         1.41836        -0.07907
C         12.23917         4.16922        -0.75564
C         10.97870         6.38998        -0.71581
C         10.93391         7.82408        -1.20268
C         12.29747         5.63039        -0.76833
C         12.27088         8.50618        -0.99529
C         10.93276        10.72543        -0.87758
C         10.97674        12.14020        -0.51068
C         12.26239         9.97372        -0.99265
C         12.21674        12.79293        -0.37578
C         11.01091        14.93643        -0.11620
C         11.03106        16.38848        -0.10326
C         12.23394        14.21269        -0.13999
C         12.20839        17.08959        -0.02767
C         10.99407        19.24584         0.00350
C         12.23979        18.54390        -0.05108
C         13.50020         2.02459        -0.45197
C         13.43373         3.34247        -1.20712
C         14.71705         1.38559        -0.23247
C         14.76401         4.11702        -1.19179
C         13.44236         6.37455        -1.44433
C         13.46573         7.83040        -0.99903
C         14.77870         5.63809        -1.30409
C         14.71078         8.52223        -0.71181
C         13.49220        10.67877        -0.60809
C         13.44857        12.04706        -0.36734
C         14.70644         9.90506        -0.46647
C         14.66741        12.73692         0.18205
C         13.48299        14.90390        -0.05041
C         13.50760        16.38214         0.25869
C         14.69074        14.21966        -0.07594
C         14.67852        17.06423        -0.43954
C         13.46250        19.22181        -0.04212
C         14.71448        18.54430        -0.12826
C         15.97428         2.05587        -0.40777
C         15.98342         3.41666        -0.74887
C         17.20294         1.35658        -0.20201
C         17.28170         4.14768        -0.94223
C         15.97196         6.39392        -0.83885
C         15.93262         7.73986        -0.56338
C         17.17811         5.58636        -0.38498
C         17.13193         8.41444         0.09694
C         15.95339        10.62272        -0.22116
C         15.95763        12.02697        -0.11346
C         17.17663         9.91341        -0.09765
C         17.17630        12.74327        -0.04167
C         15.94901        14.92096        -0.06399
C         15.97103        16.33623        -0.14573
C         17.17919        14.19429         0.00133
C         17.17883        17.04324        -0.06620
C         15.92608        19.20061        -0.04410
C         17.18252        18.49546        -0.04902
C         18.44912         2.02026        -0.20747
C         18.48967         3.44096        -0.36347
C         19.68023         1.33311         0.00852
C         19.68248         4.13208        -0.15598
C         18.50663         6.32807        -0.64320
C         18.46069         7.77315        -0.21517
C         19.64847         5.61777         0.09854
C         19.64100         8.43244        -0.09397
C         18.38165        10.61173         0.01206
C         18.40267        12.02956        -0.04323
C         19.68894         9.89558         0.27118
C         19.66339        12.75220        -0.01829
C         18.40449        14.89665         0.05696
C         18.41285        16.32911         0.04921
C         19.65476        14.18104         0.08559
C         19.63748        17.04231         0.12604
C         18.38962        19.17485         0.04470
C         19.63795        18.47969         0.12659
C         20.89172         2.01074         0.04296
C         20.91567         3.43536         0.00436
C         22.16768         1.20664         0.12524
C         22.16442         4.16637         0.05214
C         20.95341         6.33091        -0.13347
C         20.92359         7.72329        -0.18981
C         22.17160         5.59788        -0.04028
C         22.15797         8.46343        -0.20148
C         20.83645        10.59025        -0.48707
C         20.87995        12.06491        -0.15630
C         22.15558         9.88044        -0.27580
C         22.11581        12.76134        -0.12127
C         20.87462        14.88573         0.17048
C         20.87737        16.33605         0.22606
C         22.11218        14.17403         0.10464
C         22.07781        17.04746         0.34813
C         20.85452        19.17132         0.22297
C         22.09003        18.48015         0.34189
C         23.43314         2.03034         0.21272
C         23.39961         3.46788         0.14907
C         24.63420         1.36423         0.31327
C         24.63599         4.19191         0.17921
C         23.40143         6.31948        -0.01973
C         23.38945         7.74743        -0.09994
C         24.63705         5.61749         0.09320
C         24.61822         8.46998        -0.10159
C         23.36971        10.59787        -0.30175
C         23.36435        12.06206        -0.26645
C         24.59404         9.87632        -0.25164
C         24.56088        12.79703        -0.25629
C         23.34588        14.87764         0.20081
C         23.33957        16.30532         0.69467
C         24.54271        14.20530        -0.02739
C         24.59970        17.08143         0.40041
C         23.31795        19.18655         0.42234
C         24.57644        18.51953         0.41433
C         25.88770         2.05999         0.34284
C         25.87517         3.49342         0.27718
C         27.10576         1.37161         0.40447
C         27.10708         4.20875         0.30570
C         25.87058         6.34219         0.12038
C         25.86848         7.76237         0.01596
C         27.10657         5.63744         0.24089
C         27.10375         8.47624         0.06328
C         25.87014        10.57852        -0.42725
C         25.86162        12.11081        -0.43941
C         27.12194         9.89402        -0.08295
C         27.11019        12.76324        -0.03827
C         25.81303        14.96499        -0.03656
C         25.80556        16.40923         0.28984
C         27.11222        14.23426         0.02331
C         27.05065        17.11123         0.29952
C         25.79683        19.22362         0.33509
C         27.04352        18.54477         0.31185
C         28.34654         2.06451         0.41479
C         28.34180         3.50305         0.38295
C         29.57696         1.37599         0.44529
C         29.57304         4.21582         0.42153
C         28.33991         6.35078         0.28724
C         28.33783         7.77741         0.21309
C         29.57486         5.64752         0.39056
C         29.56912         8.49693         0.23676
C         28.32319        10.61911         0.01643
C         28.30839        12.06619         0.05284
C         29.56599         9.92312         0.15797
C         29.56823        12.78287         0.16673
C         28.28969        14.92038         0.66955
C         28.29094        16.40981         0.40805
C         29.58478        14.22221         0.31971
C         29.48539        17.10311         0.50236
C         28.28594        19.23162         0.30216
C         29.50700        18.53584         0.38999
C         30.80873         2.07104         0.47312
C         30.80518         3.50640         0.48183
C         32.05198         1.38522         0.47473
C         32.03946         4.21782         0.57456
C         30.80974         6.36501         0.43231
C         30.80561         7.79541         0.34310
C         32.04021         5.66267         0.54707
C         32.03512         8.51948         0.34068
C         30.79160        10.64667         0.16395
C         30.77275        12.07685         0.12229
C         32.03355         9.94127         0.24479
C         32.05302        12.82979        -0.13291
C         30.77436        14.92238         0.44856
C         30.72946        16.36106         0.92143
C         32.03683        14.25482         0.36195
C         32.01230        17.09650         0.64060
C         30.76084        19.21699         0.37287
C         31.99385        18.53866         0.45082
C         33.26440         2.08432         0.56330
C         33.24788         3.50465         0.66345
C         34.53226         1.39614         0.46127
C         34.51341         4.23050         1.01845
C         33.27507         6.38090         0.54514
C         33.27367         7.80707         0.42708
C         34.51400         5.68818         0.63701
C         34.50426         8.51645         0.41175
C         33.27610        10.66215         0.29360
C         33.29666        12.08096         0.25430
C         34.50465         9.94436         0.38635
C         34.49941        12.79052         0.40235
C         33.23508        14.94496         0.57019
C         33.19961        16.39293         0.66559
C         34.50570        14.23496         0.51731
C         34.46946        17.14617         0.77101
C         33.21215        19.22670         0.24963
C         34.47240        18.58175         0.38497
C         35.73660         2.07308         0.43928
C         35.77329         3.51182         0.61974
C         36.97183         1.40926         0.06565
C         36.96204         4.20784         0.56662
C         35.73416         6.37296         0.52001
C         35.74543         7.80435         0.40432
C         36.98575         5.65066         0.50539
C         36.97097         8.50191         0.29472
C         35.74196        10.65222         0.40589
C         35.74177        12.07622         0.44569
C         36.97750         9.93738         0.31642
C         36.97738        12.77998         0.45307
C         35.72685        14.91275         0.57511
C         35.76179        16.37983         0.75086
C         36.97908        14.22306         0.44184
C         36.99862        17.10072         0.41356
C         35.67383        19.24308         0.23284
C         37.00547        18.61192         0.55576
C         38.16919         2.06533         0.07834
C         38.25707         3.44813         0.69639
C         39.38905         1.44480        -0.40364
C         39.46824         4.21909         0.24864
C         38.19301         6.33308         0.28093
C         38.20967         7.76961         0.18081
C         39.43793         5.59469         0.10694
C         39.42010         8.44566        -0.03948
C         38.19996        10.65587         0.27050
C         38.19682        12.05374         0.40609
C         39.46482         9.95274        -0.17997
C         39.46696        12.81676         0.41702
C         38.17716        14.94628         0.22369
C         38.15100        16.39510         0.17515
C         39.42554        14.24924         0.04908
C         39.39909        17.14498        -0.11602
C         38.08733        19.23047        -0.28482
C         39.23297        18.53459        -0.61809
C         40.58494         2.06947        -0.37200
C         40.76033         3.44101         0.23365
C         41.88533         4.20991        -0.39451
C         40.64625         6.32386        -0.23405
C         40.63437         7.72848        -0.26115
C         41.83284         5.55265        -0.54603
C         41.85877         8.50245        -0.46387
C         40.74951        10.51564         0.47187
C         40.78502        12.05734         0.34891
C         41.93782         9.80663        -0.13962
C         41.87326        12.77103        -0.32761
C         40.60553        14.88415        -0.33990
C         40.64537        16.36616        -0.48826
C         41.78698        14.10808        -0.59117
C         41.58712        17.03055        -1.39463
C         40.29568        19.11125        -1.36452
C         41.42126        18.35663        -1.74481
O         26.64942        14.78047        -1.25569
O         40.48679        17.01302         0.84272
O         25.95447        11.34174        -1.68370
O         40.33189        12.64847         1.61143
O          4.14832         8.30259        -1.88900
O         11.56906        10.46705        -2.21461
O         11.83436         6.23071         0.46956
O         15.00805         4.81201        -2.50342
O         35.17511        16.86534         2.04082
O          2.01956         4.40821        -0.88719
O         10.19186         8.36481         1.01061
H          9.45867         8.71323         1.56040
O         30.61714        16.27031         2.40050
H         31.48747        15.96847         2.74084
O          8.36757         6.29212        -2.49724
H          9.11438         6.85370        -2.83890
O         38.43308         3.23347         2.14504
H         39.37568         2.95444         2.26809
O         19.93878         9.99058         1.70035
H         20.77155         9.50793         1.88966
O         40.73603        10.17032         1.86854
H         40.48650        10.98877         2.36311
O         41.14401         3.21038         1.65200
H         41.40790         4.08118         2.02040
O         14.43819        16.93952        -1.87142
H         15.19066        17.35732        -2.34001
O         14.52081        12.63087         1.65723
H         15.29766        13.07820         2.05680
O          4.79545        12.55156         2.15338
H          3.90814        12.83979         2.46103
O         13.17368         2.97253        -2.58782
H         13.42278         3.74881        -3.14037
O         28.12908        14.75367         2.11147
H         28.88397        15.23379         2.53300
O         16.96334         5.40171         1.03234
H         16.98526         6.29375         1.46364
O         22.10283         0.28264         1.22722
H         22.05151         0.80061         2.05632
O         18.81218         6.37562        -2.04909
H         18.61679         5.48713        -2.44443
O         10.60496         7.86643        -2.60930
H         10.79367         8.79080        -2.90996
O         32.12918        12.93803        -1.61328
H         31.29134        13.34995        -1.91609
O         37.28034        18.88655         1.97184
H         36.64433        18.33419         2.48376
O         16.93545         8.18971         1.54424
H         17.68007         8.63255         2.00889
O         23.31460        16.17999         2.17135
H         23.26636        17.08930         2.53686
O         13.75454        16.49657         1.69149
H         13.02861        16.03414         2.16018
O         34.54084         4.21997         2.50380
H         35.45851         4.43594         2.77870
O          9.63669        17.09666        -1.89466
H         10.45094        17.51585        -2.24732
O         39.58740        10.26026        -1.60595
H         38.82760         9.84815        -2.06844
O          6.25414        14.88791         2.24689
H          5.95734        13.97875         2.51021
O         19.41715         5.77105         1.53713
H         20.03645         5.16965         2.00101
O         17.54169         4.14000        -2.38629
H         16.68489         4.37783        -2.82730
O          7.08142         3.80104        -1.98710
H          7.53874         4.51036        -2.50397
O         13.09156         6.37824        -2.85131
H         13.85661         6.71766        -3.36088
O         20.50645        10.47295        -1.90007
H         21.25545        10.83448        -2.41834
H          0.64751         1.41674         2.24893
H          0.22957         3.07830         0.39884
H          3.00837         0.84210         2.83600
H          0.06211         5.96861        -0.56662
H          0.10767         8.41599        -0.13956
H          0.17007        10.29239        -0.57574
H          0.20899        12.70462        -0.28982
H          0.20369        14.52044         0.32105
H          0.24894        16.97408         0.46393
H          1.48406        19.10523         0.47533
H          5.34530         0.89421         2.24081
H          3.62367        20.35217         0.36099
H          7.52021         0.61872         1.26149
H          6.08515        20.34938         0.22498
H          9.87793         0.44856         0.59958
H          8.54037        20.35220         0.19039
H         12.30668         0.39932         0.33700
H         11.00786        20.33981         0.12821
H         14.71855         0.36321         0.17523
H         13.46145        20.32076         0.03154
H         17.16887         0.27448        -0.00818
H         15.94495        20.29256         0.09864
H         19.67401         0.23764         0.10730
H         18.39361        20.27486         0.07295
H         22.23344         0.56995        -0.80004
H         20.85456        20.27145         0.21479
H         24.63773         0.26518         0.36072
H         23.29857        20.28646         0.40879
H         27.10538         0.27194         0.43927
H         25.78303        20.32355         0.31296
H         29.57912         0.27573         0.45066
H         28.29355        20.33131         0.26836
H         32.06001         0.28668         0.41416
H         30.76533        20.30907         0.23830
H         34.51982         0.30781         0.29777
H         33.18800        20.30239         0.02038
H         36.91611         0.36952        -0.29439
H         35.66355        20.31903        -0.00039
H         39.31070         0.43125        -0.82860
H         37.96937        20.27477        -0.61329
H         41.48395         1.56128        -0.75248
H         42.80275         3.66004        -0.65331
H         42.71211         6.07324        -0.95127
H         42.75663         7.98996        -0.83760
H         42.90583        10.32231        -0.21717
H         42.76513        12.22041        -0.65653
H         42.65353        14.60910        -1.04582
H         42.41779        16.45781        -1.83042
H         40.21004        20.15729        -1.69158
H         42.17529        18.83190        -2.38924
