         234
 CSIRO Nanostructure Databank - Neutral Graphene Oxide Data Set
C          1.35343         1.96814         0.29440
C          1.34349         3.39056         0.58523
C          2.40195         1.29742        -0.25614
C          2.01739         4.27636        -0.19844
C          1.13961         6.41576         0.52627
C          1.09190         7.76790         0.56174
C          2.30983         5.68653         0.08580
C          2.33787         8.52706         0.49245
C          1.12882        10.71391         0.19314
C          1.11750        12.13400         0.07049
C          2.29436         9.98043         0.19296
C          2.27770        12.87978        -0.00658
C          1.12461        15.10016        -0.14640
C          1.17586        16.48716        -0.23854
C          2.30406        14.33410        -0.00555
C          2.39710        17.17327        -0.12379
C          2.46414        18.61176        -0.31763
C          3.69530         1.89672        -0.59586
C          3.74785         3.27496        -1.04527
C          4.87260         1.26294        -0.27976
C          4.83319         4.11385        -0.89540
C          3.52149         6.29856        -0.21368
C          3.62633         7.73659         0.12930
C          4.65707         5.64715        -1.07266
C          4.82040         8.54328        -0.21936
C          3.55117        10.64931        -0.14780
C          3.55870        12.17242        -0.19445
C          4.83571         9.91406        -0.05371
C          4.82245        12.86729         0.11316
C          3.55470        15.00281         0.09945
C          3.59700        16.43533         0.10334
C          4.77545        14.24816         0.26850
C          4.83005        17.14713         0.24773
C          3.60213        19.30707        -0.11334
C          4.81424        18.63787         0.46924
C          6.14129         1.90233        -0.60909
C          6.12856         3.41635        -0.93339
C          7.39998         1.32510        -0.14043
C          7.41799         4.16825        -0.82574
C          6.03661         6.40095        -0.93650
C          6.07475         7.85116        -0.56048
C          7.36770         5.67556        -0.83005
C          7.33667         8.52544        -0.17505
C          6.07385        10.65187         0.04981
C          6.06054        12.10189         0.21743
C          7.28424         9.91558         0.10307
C          7.25815        12.78930         0.40616
C          5.99989        15.00192         0.58989
C          6.04823        16.45878         0.36152
C          7.30074        14.24220         0.62627
C          7.30004        17.12324         0.30013
C          6.11770        19.28530         0.11601
C          7.31438        18.57113         0.13701
C          8.59019         2.05826        -0.10730
C          8.62310         3.48198        -0.32771
C          9.82362         1.38273         0.09078
C          9.81925         4.20287        -0.15439
C          8.58324         6.38743        -0.35723
C          8.56162         7.80909        -0.16552
C          9.79038         5.66453        -0.21644
C          9.81024         8.51979        -0.00213
C          8.54399        10.58298         0.47440
C          8.53300        12.09291         0.59540
C          9.82817         9.91808         0.21415
C          9.79420        12.81942         0.37588
C          8.55583        14.97674         0.38451
C          8.53641        16.38821         0.27137
C          9.77161        14.24495         0.27907
C          9.78261        17.08806         0.11443
C          8.56067        19.24151         0.00231
C          9.79605        18.54946        -0.00401
C         11.05437         2.04547         0.14083
C         11.04713         3.50395         0.14408
C         12.21789         1.19360        -0.01177
C         12.24664         4.28453         0.21897
C         11.02418         6.39312        -0.10584
C         11.04284         7.81579        -0.05866
C         12.25369         5.69171        -0.02757
C         12.28432         8.53036         0.04186
C         11.03931        10.65201         0.27774
C         11.00666        12.11228         0.31139
C         12.28290         9.95547         0.19253
C         12.22614        12.84326         0.16221
C         11.00083        14.95188         0.13165
C         10.98315        16.37664         0.10419
C         12.23067        14.23525         0.04947
C         12.25524        17.13019         0.26338
C         10.99605        19.23683        -0.17379
C         12.28040        18.49436        -0.37804
C         13.50581         1.53050         0.39686
C         13.50813         3.72022         0.52115
C         14.77714         1.06655         0.03644
C         14.72163         4.27120         0.06658
C         13.50195         6.38979        -0.07621
C         13.51245         7.81753        -0.02687
C         14.71860         5.64985        -0.18323
C         14.76999         8.52421         0.03536
C         13.53805        10.65185         0.32137
C         13.50503        12.13402         0.40389
C         14.74427         9.95079         0.25510
C         14.77979        12.92090         0.27692
C         13.43624        15.03306        -0.42014
C         13.55716        16.39023         0.26562
C         14.77062        14.23287        -0.51836
C         14.79793        17.15547         0.06516
C         13.53662        19.26331        -0.11219
C         14.76505        18.59381        -0.02029
C         15.95553         1.90640         0.12983
C         15.94880         3.41096        -0.23364
C         17.17664         1.28628         0.17224
C         17.18955         4.14707         0.27291
C         16.01512         6.36217        -0.46179
C         15.98334         7.83748        -0.11768
C         17.18529         5.64843         0.21876
C         17.25738         8.52515        -0.14008
C         16.04904        10.63505         0.36367
C         16.07628        12.16029         0.29740
C         17.28391         9.92536         0.03757
C         17.32998        12.82430        -0.15825
C         16.01123        15.05081        -0.16920
C         16.02285        16.44406         0.00568
C         17.28781        14.33896        -0.25646
C         17.29011        17.18427         0.08146
C         16.00093        19.30084        -0.08001
C         17.25194        18.64230        -0.00352
C         18.47027         1.96442        -0.17390
C         18.48981         3.45114         0.13251
C         19.69086         1.31008         0.43393
C         19.67284         4.10762         0.01981
C         18.49195         6.37617         0.13749
C         18.46142         7.78382        -0.28668
C         19.77092         5.58875         0.05768
C         19.74880         8.46615        -0.49878
C         18.56449        10.64854         0.18163
C         18.60985        12.12576         0.09009
C         19.83850         9.91273        -0.11193
C         19.81347        12.80332         0.04244
C         18.52188        15.04102         0.19337
C         18.49615        16.51534         0.15529
C         19.82024        14.27987         0.28051
C         19.77137        17.19729         0.39645
C         18.44786        19.36584        -0.10907
C         19.73600        18.76812         0.20765
C         20.86020         1.96079         0.42769
C         20.95571         3.31949        -0.22808
C         22.15880         4.12469         0.21707
C         21.04113         6.16629        -0.59049
C         21.05303         7.71051        -0.57843
C         22.21113         5.45502         0.05838
C         22.26290         8.49563        -0.20253
C         21.08018        10.67470        -0.58322
C         21.08157        12.12874        -0.12619
C         22.28378         9.84214        -0.17657
C         22.23527        12.88017        -0.17609
C         21.08933        15.03663         0.13633
C         21.05718        16.49615         0.18792
C         22.24202        14.30459        -0.05589
C         22.19985        17.26518         0.04782
C         20.99658        19.39122        -0.18740
C         22.16213        18.67970        -0.15754
O         17.37507        13.48584        -1.45690
O         13.55668         2.60157         1.32268
O          2.51622         3.81872        -1.42721
O          6.13280         7.41193        -1.99241
O         14.14438        12.82666         1.56618
O         13.08874        15.47572        -1.74454
O          3.54906        11.37861        -1.43263
O         19.38560         6.19961         1.31810
O         16.26123        11.48902         1.56060
O          7.66717         4.93171        -2.06302
O          8.51733        11.23258         1.79509
O         16.94300         4.96000         1.46841
O          6.60876        14.63115         1.87894
O          3.27823         8.08795         1.52650
O         19.46251        10.12768         1.26533
O         19.76450        18.11155         1.51740
O         20.40472         8.20410        -1.82174
O         12.89494        16.77723         1.52890
O         19.04028        14.58512         1.49812
O          6.21025         2.41365        -1.99651
O         16.04569         3.39765        -1.68572
H         16.84698         2.86533        -1.92278
O          4.20979         5.84734        -2.42241
H          4.97949         5.74895        -3.02204
O         21.05608        10.76885        -2.02906
H         20.97004         9.84773        -2.37866
O          4.67885        18.80250         1.94449
H          5.42357        18.31399         2.35782
O         12.34323        18.14927        -1.82162
H         12.61401        17.17479        -1.90751
O         14.89107        13.80831        -1.89018
H         14.26697        14.42738        -2.37705
O         21.06117         3.07199        -1.66497
H         21.13342         3.96356        -2.09508
O         18.56240         1.87400        -1.64079
H         19.47087         2.20443        -1.88414
O         16.32211         6.27595        -1.88771
H         15.50849         6.48572        -2.39190
O         21.02944         5.75963        -1.98654
H         20.61082         6.49825        -2.49349
H          0.49688         1.37856         0.65857
H          0.83021         3.73159         1.49599
H          2.34298         0.19954        -0.31506
H          0.21115         5.83897         0.64509
H          0.13108         8.28515         0.68362
H          0.16571        10.22041         0.38266
H          0.14402        12.63764         0.14614
H          0.15259        14.59617        -0.23330
H          0.25071        17.05743        -0.40455
H          1.55540        19.12130        -0.67259
H          4.87719         0.30469         0.25887
H          3.63400        20.39438        -0.27671
H          7.42249         0.25780         0.12481
H          6.14836        20.38132         0.02147
H          9.81059         0.28377         0.12143
H          8.56215        20.33577        -0.11451
H         12.06036         0.24113        -0.53939
H         10.98124        20.33207        -0.28720
H         14.89645         0.05773        -0.38768
H         13.52989        20.35820        -0.22838
H         17.21009         0.19339         0.30741
H         15.98104        20.39687        -0.17093
H         19.59986         0.30309         0.86889
H         18.41455        20.42320        -0.41245
H         21.77067         1.50796         0.84905
H         23.01102         3.58839         0.66303
H         23.10167         6.01554         0.37800
H         23.17097         7.94454         0.08283
H         23.21475        10.35364         0.11193
H         23.19604        12.38771        -0.38290
H         23.20997        14.81367        -0.16285
H         23.17973        16.77487        -0.03495
H         20.98664        20.43698        -0.52760
H         23.10770        19.18362        -0.40361
