         410
 CSIRO Nanostructure Databank - Neutral Graphene Oxide Data Set
C         27.81737        27.35074        -0.28836
C         27.81647        28.76843        -0.38951
C         26.60515        29.51031        -0.49605
C         27.84958        31.61357        -0.61527
C         26.62324        30.87972        -0.61523
C         27.87796        33.04938        -0.71698
C         26.67681        33.80927        -0.83271
C         27.91311        35.92000        -0.80085
C         26.69478        35.17977        -0.89485
C         27.92376        37.34569        -0.84081
C         26.73022        38.09376        -1.15178
C         27.97487        40.20899        -1.09026
C         26.74766        39.44219        -1.30508
C         27.88540        41.72125        -0.77534
C         26.61670        42.46407        -0.70097
C         27.82504        44.56434        -0.31339
C         26.61274        43.81305        -0.49439
C         27.89931        45.94564        -0.50271
C         30.25944        27.31372        -0.24053
C         29.00037        26.64836        -0.20968
C         30.28044        28.73130        -0.33871
C         29.05595        29.46505        -0.39880
C         30.31874        31.59023        -0.47618
C         29.06906        30.89125        -0.49316
C         30.32748        32.99798        -0.59891
C         29.12304        33.74563        -0.69033
C         30.34909        35.91611        -0.48688
C         29.14410        35.19655        -0.68344
C         30.34450        37.32906        -0.33946
C         29.13635        38.05797        -0.59185
C         30.35048        40.18743        -0.27566
C         29.17125        39.48321        -0.62860
C         30.34638        41.61848        -0.12221
C         29.05668        42.30433        -0.07464
C         30.32636        44.54521         0.07353
C         29.03723        43.85428         0.09500
C         30.32532        45.96361        -0.07513
C         29.10699        46.63223        -0.33894
C         32.69844        24.48831         0.27523
C         31.54179        25.19122         0.15663
C         32.71801        27.27571        -0.41834
C         31.50710        26.58737        -0.21582
C         32.75311        28.70217        -0.42537
C         31.52823        29.43536        -0.36371
C         32.80898        31.53841        -0.27351
C         31.55085        30.85231        -0.39431
C         32.82085        32.93973        -0.23291
C         31.62399        33.68615        -0.63452
C         32.85451        35.84828        -0.00239
C         31.64134        35.20271        -0.54255
C         32.73436        37.26386         0.42366
C         31.53149        38.04637         0.03804
C         32.70325        40.21390         0.55611
C         31.52145        39.44230         0.10739
C         32.76300        41.66531         0.28754
C         31.53095        42.36287         0.12987
C         32.78461        44.50909         0.20854
C         31.53340        43.80883         0.16125
C         32.80117        45.95187         0.17757
C         31.57817        46.67843         0.05764
C         32.80927        48.77775         0.25662
C         31.61916        48.09278         0.10073
C         35.30653        23.23742         0.84609
C         35.27767        24.45618         0.15392
C         33.96880        25.02867        -0.23074
C         35.26727        27.20368        -0.68808
C         33.96597        26.51552        -0.60238
C         35.21374        28.66644        -0.91796
C         33.99245        29.40074        -0.53067
C         35.31843        31.48559        -0.30643
C         34.04838        30.79357        -0.33685
C         35.35125        32.87563         0.18047
C         34.01104        33.65872         0.20274
C         35.26194        35.82097         0.63989
C         34.00143        35.13913         0.25060
C         35.29921        37.29761         0.58649
C         34.01539        37.99180         0.78124
C         35.27201        40.19805         0.57343
C         34.00704        39.48573         0.82305
C         35.24025        41.61303         0.46232
C         33.98952        42.34692         0.38099
C         35.24821        44.48863         0.32839
C         34.00135        43.78287         0.29881
C         35.27122        45.91925         0.30251
C         34.03492        46.66126         0.25217
C         35.29058        48.81475         0.44943
C         34.05115        48.09556         0.31379
C         35.37866        50.19185         0.71150
C         37.72626        23.26199         0.85215
C         36.51788        22.65420         1.19794
C         37.73903        24.52081         0.19636
C         36.48987        25.13731        -0.15391
C         37.71617        27.17800        -1.18239
C         36.45639        26.50580        -0.64713
C         37.77107        28.66553        -0.84452
C         36.52635        29.42836        -0.96813
C         37.78352        31.58014        -0.62180
C         36.52622        30.85538        -0.59678
C         37.74703        33.02658        -0.41499
C         36.59809        33.64410         0.01807
C         37.78614        35.89253         0.18093
C         36.58119        35.07721         0.41417
C         37.75036        37.29732         0.34665
C         36.48785        38.00437         0.49623
C         37.70859        40.17374         0.33968
C         36.48186        39.46689         0.47299
C         37.69825        41.59850         0.32200
C         36.46890        42.31869         0.36591
C         37.70354        44.45178         0.34000
C         36.46884        43.75497         0.33596
C         37.71008        45.87372         0.38194
C         36.50636        46.60325         0.33122
C         37.79517        48.73963         0.75942
C         36.57435        48.09806         0.13520
C         37.82858        50.13665         1.02615
C         36.59630        50.84865         0.92549
C         40.14897        20.40109         1.17923
C         38.98998        21.08994         1.13994
C         40.24724        23.21653         0.75980
C         38.99420        22.59180         1.30906
C         40.23425        24.54105         0.24384
C         39.00050        25.16524        -0.08959
C         40.35028        27.21340        -0.83199
C         39.02340        26.43605        -0.83121
C         40.33337        28.70487        -1.04944
C         38.99349        29.43575        -1.06741
C         40.26804        31.61914        -1.08213
C         38.97606        30.90489        -0.88384
C         40.25011        33.14788        -1.00697
C         38.91010        33.89429        -0.87624
C         40.20908        35.90944        -0.02530
C         38.99071        35.22814        -0.15396
C         40.20807        37.32639         0.20517
C         38.96953        38.03131         0.26006
C         40.17803        40.17618         0.14524
C         38.96110        39.46507         0.25933
C         40.16908        41.61602         0.13782
C         38.93631        42.31330         0.24431
C         40.17433        44.43737         0.28549
C         38.94093        43.73437         0.28331
C         40.17308        45.84815         0.51989
C         38.96026        46.55679         0.56184
C         40.14859        48.52317         1.41379
C         38.95944        47.95477         0.87221
C         40.13035        49.89656         1.77067
C         39.07210        50.75432         1.46611
C         40.45607        52.88402         1.46704
C         39.27422        52.19738         1.55618
C         42.62516        20.40030         1.36489
C         41.42580        21.09113         1.19435
C         42.71349        23.15296         0.72510
C         41.45230        22.49765         0.90695
C         42.72817        24.52586         0.37717
C         41.50874        25.22734         0.09051
C         42.78398        27.33661        -0.24111
C         41.55188        26.59336        -0.25084
C         42.76906        28.74703        -0.47039
C         41.56256        29.48113        -0.71796
C         42.80280        31.64508        -0.85972
C         41.53494        30.87494        -0.83241
C         42.78410        33.17734        -0.76308
C         41.48817        33.87386        -0.61823
C         42.70525        35.86146         0.22885
C         41.45472        35.17559        -0.16915
C         42.70458        37.36695         0.41669
C         41.42545        38.06813         0.23467
C         42.68479        40.17047         0.05208
C         41.42548        39.46505         0.13980
C         42.62567        41.61280        -0.25883
C         41.37960        42.34301         0.01844
C         42.65336        44.49738         0.06968
C         41.40705        43.74445         0.13319
C         42.65765        45.88629         0.39818
C         41.41620        46.51017         0.80093
C         43.29059        48.90039         1.14553
C         41.34254        47.75654         1.43504
C         43.28536        50.36737         1.14263
C         42.11658        51.02633         1.59124
C         42.85116        53.12072         0.69212
C         41.80345        52.35604         1.25867
C         43.85599        21.06340         1.27519
C         45.20123        23.11767         0.79986
C         43.92925        22.42552         0.94881
C         45.19951        24.47709         0.40390
C         43.98678        25.20226         0.23916
C         45.26884        27.28651         0.10029
C         44.00104        26.60904        -0.01178
C         45.29518        28.74975        -0.11432
C         44.04922        29.48746        -0.48097
C         45.21234        31.68757        -0.24270
C         44.05127        30.97504        -0.44976
C         45.23668        33.14130        -0.22548
C         44.02374        33.85658        -0.32274
C         45.20338        35.96847         0.16592
C         44.00447        35.22968        -0.01930
C         45.19629        37.41795         0.22279
C         43.97776        38.09730         0.25524
C         45.18955        40.28100         0.11000
C         43.91115        39.52323         0.12258
C         45.19361        41.74647        -0.15255
C         43.88162        42.39583        -0.44087
C         45.08695        44.57530        -0.40036
C         43.86834        43.85488        -0.24021
C         44.91720        45.98070        -0.50296
C         43.80890        46.65622         0.05690
C         45.80277        49.27048        -0.00396
C         43.86908        48.11399         0.18426
C         45.69379        50.56798         0.51813
C         44.34813        51.17753         0.64475
C         44.11252        52.55898         0.48100
C         47.66404        23.17552         1.02745
C         46.43496        22.49135         1.09388
C         47.75320        24.47817         0.56287
C         46.50363        25.12831         0.01793
C         47.73681        27.30768         0.49924
C         46.45697        26.61010         0.25315
C         47.75570        28.79193         0.59030
C         46.45041        29.51675         0.42910
C         47.74869        31.66562         0.12981
C         46.42767        30.98942         0.26907
C         47.72735        33.15409         0.05967
C         46.43199        33.86834         0.05416
C         47.70309        36.01457         0.49917
C         46.43190        35.26151         0.16822
C         47.69261        37.46586         0.09551
C         46.46229        38.15297         0.08603
C         47.67930        40.31679        -0.14792
C         46.46548        39.56413        -0.03632
C         47.69612        41.73954        -0.30296
C         46.42281        42.43125        -0.72904
C         47.58971        44.58597        -0.14189
C         46.39628        43.92373        -0.45648
C         47.53351        45.97241         0.32072
C         46.84954        47.03667        -0.21053
C         48.09711        49.02894         0.75327
C         46.92382        48.43359         0.20328
C         48.04323        50.38753         1.14023
C         46.86120        51.12585         1.08603
C         50.28552        24.53185         0.49203
C         49.01302        25.20122         0.43933
C         50.26064        27.36481        -0.02430
C         49.00866        26.58852         0.31173
C         50.26742        28.82839         0.36620
C         49.03004        29.53771         0.42161
C         50.24126        31.67544         0.62122
C         48.99642        30.92031         0.41277
C         50.20834        33.17546         0.58212
C         48.97170        33.92111         0.25714
C         50.18675        35.99425        -0.35987
C         48.95912        35.27309         0.12545
C         50.16407        37.48266        -0.14741
C         48.92289        38.17667        -0.02776
C         50.14420        40.31102        -0.30480
C         48.92065        39.60471        -0.12197
C         50.14463        41.75146        -0.36571
C         48.91374        42.47799        -0.28709
C         50.17044        44.62539        -0.16655
C         48.90721        43.92957        -0.17157
C         50.35101        46.07250         0.03804
C         49.40478        46.89177         0.69595
C         50.52342        48.94119         0.13345
C         49.36677        48.29996         0.62552
C         51.47767        25.23871         0.47889
C         52.76060        27.38185         0.33011
C         51.53606        26.64378         0.33135
C         52.74599        28.81954         0.30582
C         51.49925        29.53380         0.37114
C         52.74052        31.68112         0.45855
C         51.53130        30.96311         0.49410
C         52.77073        33.16161         0.60523
C         51.48986        33.94222         0.58117
C         52.72029        35.99799        -0.35192
C         51.47864        35.38054         0.16331
C         52.56114        37.39848        -0.94364
C         51.36573        38.16971        -0.37820
C         52.53262        40.26208        -1.09068
C         51.35260        39.57766        -0.45926
C         52.57705        41.74388        -0.82829
C         51.37405        42.46232        -0.55851
C         52.60641        44.58133        -0.77732
C         51.37387        43.89524        -0.48276
C         52.66195        46.00410        -0.84954
C         51.52011        46.76127        -0.40146
C         51.59049        48.17649        -0.30351
C         55.20580        27.42680         0.27237
C         54.02488        26.72130         0.34844
C         55.20744        28.84464         0.21098
C         53.96816        29.55332         0.26954
C         55.21337        31.70340         0.07958
C         53.97567        30.98870         0.28496
C         55.23012        33.11229        -0.11962
C         54.02577        33.91274         0.18504
C         55.11315        35.88970        -0.97579
C         53.89591        35.29982        -0.36144
C         55.09866        37.43271        -1.19944
C         53.85709        38.16577        -0.89410
C         55.07902        40.28382        -1.00960
C         53.85448        39.54829        -0.88663
C         55.04643        41.69508        -1.14755
C         53.80034        42.41545        -0.99712
C         55.00970        44.53171        -1.36475
C         53.80442        43.84757        -1.03510
C         55.00510        45.93610        -1.50920
C         53.85096        46.65168        -1.26090
C         56.42543        29.57195         0.09473
C         56.42391        30.94163        -0.00336
C         56.40252        33.82726        -0.50833
C         56.37209        35.15193        -0.85410
C         56.34616        38.19685        -1.17309
C         56.32023        39.54936        -1.04251
C         56.23662        42.43173        -1.43466
C         56.21608        43.79428        -1.56911
O         34.61304        33.06826         1.41470
O         54.95471        36.47654        -2.29958
O         46.16730        30.37853         1.58354
O         36.01558        35.26392         1.75834
O         52.25896        37.34401        -2.34907
O         35.74995        29.12632        -2.20402
O         33.16853        37.41156         1.82092
O         51.45992        35.02786         1.57438
O         42.95699        32.49460        -2.04565
O         42.47133        48.25889         2.10515
O         41.24422        50.36970         2.47240
O         39.91655        26.42804        -1.99081
O         33.86948        25.45820        -1.61915
O         43.17735        41.91563        -1.62419
O         45.29523        41.30466         1.21899
O         47.86289        32.33031        -1.18324
O         48.38179        46.25493         1.41442
O         28.23510        41.23952        -2.11199
O         31.85289        34.53310        -1.83586
O         28.79335        42.92362         1.20859
O         47.76021        28.00440         1.83505
O         39.74570        29.05877        -2.32888
O         53.67873        33.69928         1.60606
O         45.90175        46.70873        -1.20218
O         45.01628        29.02639        -1.53373
O         42.65726        36.45478         1.57369
O         50.07912        32.47950         1.88123
O         44.70273        48.78137        -0.73862
O         33.19378        39.96834         1.93041
O         40.31665        32.46585        -2.29894
O         37.57143        27.12401        -2.62350
H         38.41429        27.46824        -3.00426
O         50.24501        27.40571        -1.52182
H         50.26795        26.47583        -1.83695
O         46.32528        42.23608        -2.17357
H         47.05282        42.73411        -2.60171
O         50.16828        35.79160        -1.80228
H         50.90605        36.35715        -2.20743
O         52.25079        40.08269        -2.52497
H         52.23408        39.08146        -2.67450
O         47.75981        36.08266         1.97352
H         48.04044        35.20636         2.31540
O         39.04723        22.82649         2.76971
H         39.86959        22.40342         3.09816
O         46.61685        24.97077        -1.45779
H         45.81954        25.38415        -1.85522
O         36.75317        48.27387        -1.33242
H         36.77586        49.24034        -1.50160
O         38.52975        34.29059        -2.23053
H         38.93109        33.62350        -2.83924
H         26.85715        26.81507        -0.28401
H         25.64733        28.97032        -0.49151
H         25.66684        31.41128        -0.70491
H         25.70679        33.29739        -0.87522
H         25.73743        35.70954        -0.98074
H         25.78984        37.55843        -1.33652
H         25.84266        39.97428        -1.62825
H         25.67681        41.94561        -0.93628
H         25.66313        44.36571        -0.55352
H         26.99242        46.50340        -0.77706
H         28.96302        25.55232        -0.15271
H         29.10105        47.72180        -0.47132
H         32.66657        23.48216         0.71495
H         30.60759        24.71604         0.48619
H         32.78526        49.87492         0.30093
H         30.68825        48.67126         0.03472
H         34.37373        22.72417         1.11084
H         34.45896        50.78761         0.80733
H         36.51495        21.70994         1.75768
H         36.57665        51.92710         1.13434
H         40.15237        19.30095         1.15394
H         38.03298        20.55060         1.10026
H         40.37942        53.98367         1.44315
H         38.36205        52.81412         1.59658
H         42.60433        19.32002         1.56836
H         42.67959        54.17909         0.44842
H         44.77418        20.48160         1.43091
H         44.92788        53.19699         0.11209
H         48.56606        22.65347         1.37873
H         46.44765        21.45223         1.44894
H         48.94704        50.85767         1.55264
H         46.83581        52.14655         1.49315
H         50.31596        23.43903         0.59739
H         50.56734        50.03773         0.08081
H         52.40903        24.67044         0.61383
H         52.49293        48.70046        -0.64017
H         56.16621        26.89186         0.25081
H         54.06683        25.62450         0.38377
H         55.92835        46.45328        -1.80591
H         53.87910        47.74281        -1.37001
H         57.37438        29.01787         0.05804
H         57.38439        31.46066        -0.11799
H         57.36484        33.30088        -0.56919
H         57.29431        35.62995        -1.21293
H         57.30435        37.67600        -1.30630
H         57.27381        40.09383        -1.03164
H         57.18443        41.90049        -1.58908
H         57.13463        44.34205        -1.82361
