         234
 CSIRO Nanostructure Databank - Neutral Graphene Oxide Data Set
C          1.24514         1.96347         0.72248
C          1.21585         3.33471         0.84138
C          2.45692         1.24866         0.54246
C          2.44909         4.10658         0.69101
C          1.27621         6.42385         0.81003
C          1.26088         7.80396         0.63659
C          2.49320         5.64955         0.62665
C          2.36954         8.51810         0.18173
C          1.17489        10.67590        -0.44319
C          1.19902        11.99736        -0.71071
C          2.32921        10.03636         0.28551
C          2.42667        12.78217        -0.65246
C          1.16508        15.01065        -0.56157
C          1.20491        16.31832        -0.17717
C          2.38708        14.25944        -1.04152
C          2.42208        17.06921        -0.03574
C          2.45871        18.44803         0.21642
C          3.66066         1.91311         0.27732
C          3.59064         3.38407         0.03774
C          4.89686         1.24799         0.19025
C          4.81928         4.14494        -0.34707
C          3.66566         6.31560         0.00085
C          3.56048         7.76801        -0.25749
C          4.84917         5.63777        -0.24191
C          4.87065         8.50543        -0.51062
C          3.66776        10.73793        -0.01277
C          3.63246        12.16241        -0.44454
C          4.93486         9.97553        -0.24358
C          4.89884        12.75027        -1.06309
C          3.65867        14.90538        -0.51820
C          3.69339        16.33369        -0.07754
C          4.93637        14.27472        -0.97477
C          4.97117        17.07431        -0.07544
C          3.66770        19.12213         0.38533
C          4.93179        18.47062         0.23528
C          6.11481         1.93079        -0.01495
C          6.10699         3.38009        -0.37663
C          7.34198         1.25596         0.01642
C          7.38207         4.14073        -0.25955
C          6.11088         6.34814        -0.43454
C          6.12322         7.73962        -0.47463
C          7.37320         5.63084        -0.26220
C          7.38288         8.48712        -0.61995
C          6.20599        10.69213        -0.54940
C          6.20398        12.09015        -0.65090
C          7.41458         9.96614        -0.49590
C          7.43601        12.79340        -0.63646
C          6.21085        15.01928        -0.77873
C          6.19316        16.44356        -0.33064
C          7.46516        14.24657        -0.64453
C          7.42543        17.16560        -0.27581
C          6.14861        19.15761         0.39374
C          7.40470        18.55016         0.16550
C          8.58677         1.95295         0.00325
C          8.54596         3.41293         0.41401
C          9.79507         1.32451        -0.22460
C          9.83992         4.14636         0.16180
C          8.56783         6.29256        -0.10222
C          8.68136         7.72281        -0.40652
C          9.77583         5.60834         0.51857
C          9.89642         8.48256        -0.06558
C          8.64417        10.65397        -0.47154
C          8.64844        12.05947        -0.50965
C          9.97208         9.91366        -0.55922
C          9.95426        12.76240        -0.54645
C          8.63736        14.95571        -0.49918
C          8.63837        16.40410        -0.45417
C          9.94368        14.26647        -0.54898
C          9.89025        17.01436        -0.59925
C          8.56473        19.30891         0.55510
C          9.86045        19.05868         0.09031
C         11.03877         2.05465        -0.33041
C         10.99182         3.51386        -0.17236
C         12.22431         1.40476        -0.56404
C         12.24540         4.29153        -0.32339
C         11.06828         6.35248         0.29462
C         11.05548         7.79109         0.28182
C         12.27389         5.68741         0.18102
C         12.29765         8.48090         0.51545
C         11.10715        10.69076         0.07897
C         11.14581        12.06093         0.00591
C         12.21286         9.94759         0.70410
C         12.33986        12.82858         0.35826
C         11.16373        14.99419        -0.14681
C         11.14083        16.40730        -0.23497
C         12.34610        14.29131         0.20454
C         12.30647        17.19484         0.02160
C         11.12230        19.39066         0.59781
C         12.30878        18.63169         0.27453
C         13.51041         2.09446        -0.96096
C         13.52776         3.59305        -0.63553
C         14.74862         1.37800        -0.50241
C         14.77621         4.24466        -0.15806
C         13.53081         6.37621         0.31631
C         13.49443         7.78779         0.63265
C         14.75317         5.65946         0.20635
C         14.74335         8.47361         1.06970
C         13.46907        10.71934         1.03592
C         13.49499        12.15813         0.72977
C         14.79380        10.00612         1.31830
C         14.77249        12.87052         0.96868
C         13.52262        15.04453         0.37398
C         13.53680        16.47273         0.20899
C         14.77235        14.37266         0.78502
C         14.75811        17.17559         0.25473
C         13.54296        19.28957         0.38329
C         14.78262        18.60723         0.18918
C         15.91984         2.05028        -0.23140
C         15.92169         3.49947        -0.03138
C         17.16636         1.34452        -0.16650
C         17.18093         4.12409         0.50656
C         16.00213         6.32049         0.40310
C         16.03567         7.73355         0.83649
C         17.21696         5.62031         0.34839
C         17.31916         8.45914         0.70397
C         15.97997        10.68506         0.63790
C         16.05000        12.15478         0.77100
C         17.28747         9.93376         0.52035
C         17.25186        12.83778         0.62982
C         16.06795        15.01735         0.53653
C         16.08316        16.52574         0.53385
C         17.23636        14.29808         0.55927
C         17.17729        17.09566        -0.35536
C         15.97971        19.29089        -0.07244
C         17.14676        18.58454        -0.70521
C         18.39571         2.02121        -0.14681
C         18.43448         3.43698         0.04113
C         19.62989         1.31928        -0.37136
C         19.64005         4.14823        -0.05183
C         18.46509         6.30085         0.36750
C         18.47857         7.74351         0.50766
C         19.67900         5.58570         0.11851
C         19.78796         8.43867         0.53964
C         18.53565        10.71926         0.56393
C         18.51685        12.09999         0.57621
C         19.81818         9.96142         0.61030
C         19.81892        12.84047         0.62817
C         18.51333        15.06036         0.46063
C         18.47682        16.38121        -0.24565
C         19.82553        14.33416         0.45440
C         19.73758        17.14146        -0.31921
C         18.45019        19.26281        -0.39116
C         19.67760        18.57491        -0.33626
C         20.81014         2.00359        -0.47405
C         20.85060         3.42948        -0.34444
C         22.05515         4.13995        -0.48263
C         20.91755         6.27153        -0.07656
C         20.97854         7.72393         0.03457
C         22.07939         5.52648        -0.36825
C         22.10168         8.45391        -0.28974
C         21.04707        10.63060         0.13449
C         21.09799        12.10589         0.27316
C         22.13158         9.88042        -0.23916
C         22.18733        12.87725        -0.34453
C         21.00201        15.01259        -0.12666
C         20.97436        16.45568        -0.25795
C         22.12855        14.24383        -0.49969
C         22.17195        17.21914        -0.30076
C         20.91114        19.29394        -0.31023
C         22.12477        18.61553        -0.32200
O         12.48782        10.38802         2.08561
O          2.85545         4.88288         1.85847
O          8.18852         8.03976        -1.77399
O          9.92370        18.29599        -1.11020
O          3.99409         8.15475        -1.62647
O          3.67181        15.17444         0.89945
O          3.83070         3.72396        -1.36652
O         12.82174         4.32191        -1.70267
O          8.31944         3.43344         1.82190
O         17.62120        16.27232        -1.47076
O         20.00678         9.14363         1.81350
O          5.56640        14.87776        -2.13931
O          4.56112        10.40758         1.12732
O         10.17056        13.49283        -1.79637
O         15.40038         7.80479         2.18886
O          6.95836         3.62043        -1.55970
O         20.75109        12.45453         1.67821
O         16.39882        10.21034        -0.66963
O         14.70641        13.76551         2.13356
O         19.31873        15.04570         1.66443
O          2.42896        14.35952        -2.48935
H          1.80753        13.70279        -2.86589
O         17.13905         3.90236         1.96916
H         17.86949         4.42214         2.36792
O          2.04819        10.31402         1.69179
H          2.90907        10.25507         2.16722
O          9.56735         5.69146         1.95974
H          9.04193         4.86471         2.21419
O         16.96735        18.69938        -2.15820
H         17.27308        17.84562        -2.54674
O          4.76458        12.41671        -2.47571
H          5.17413        13.16150        -2.97781
O         13.55041         1.96871        -2.42176
H         13.07907         2.76431        -2.76910
O         10.29583         9.81437        -1.98089
H          9.59201         9.25008        -2.38587
O         15.06261        10.22292         2.71549
H         14.25865         9.96023         3.21551
O         16.47723        16.93421         1.88441
H         15.92216        16.44186         2.52618
H          0.31760         1.39350         0.87503
H          0.28829         3.84068         1.14310
H          2.45468         0.15428         0.64671
H          0.40322         5.92997         1.25727
H          0.35812         8.36156         0.92526
H          0.25575        10.09143        -0.59376
H          0.30384        12.48437        -1.12701
H          0.18602        14.51566        -0.64694
H          0.25967        16.83951         0.04165
H          1.51338        19.00475         0.29429
H          4.92165         0.15826         0.34698
H          3.65859        20.19748         0.61397
H          7.34262         0.15561         0.08527
H          6.12346        20.21368         0.69973
H          9.81422         0.24400        -0.44184
H          8.41455        20.10490         1.29954
H         12.21364         0.30763        -0.66199
H         11.23244        20.24203         1.28580
H         14.76968         0.28358        -0.62102
H         13.55499        20.37974         0.52956
H         17.15724         0.25230        -0.30062
H         15.97907        20.39129        -0.08084
H         19.60464         0.22613        -0.48669
H         18.46485        20.36345        -0.38533
H         21.75017         1.46664        -0.66745
H         22.98487         3.59272        -0.69400
H         23.04002         6.04218        -0.49756
H         23.01210         7.94929        -0.63914
H         23.06684        10.37525        -0.53535
H         23.06609        12.33866        -0.72413
H         22.98192        14.75286        -0.97049
H         23.14563        16.71297        -0.25380
H         20.89066        20.39288        -0.30682
H         23.06468        19.18524        -0.32245
