         762
 CSIRO Nanostructure Databank - Neutral Graphene Oxide Data Set
C         27.30367        26.10924         8.19371
C         26.85316        27.21540         8.96572
C         26.55941        28.83259         7.05257
C         26.46583        28.43244         8.42925
C         25.36847        30.44006         5.60492
C         23.99424        30.93865         5.56805
C         24.26780        32.91250         4.16270
C         23.43652        31.94248         4.82310
C         24.04786        33.75791         3.10125
C         22.71926        34.04435         2.59176
C         23.47578        36.22698         1.72803
C         22.42512        35.21326         1.97409
C         23.19460        37.53503         1.04104
C         21.82191        38.06676         0.82684
C         22.76330        40.17077        -0.07333
C         21.63960        39.34392         0.45168
C         22.85502        41.62175         0.22323
C         22.08595        42.15022         1.21513
C         23.09142        44.36584         1.05092
C         22.17653        43.52611         1.62494
C         23.25566        45.78124         1.51883
C         22.11414        46.52356         2.08409
C         23.29162        48.66979         1.83295
C         22.15318        47.87429         2.22707
C         27.78847        24.03291         5.90063
C         27.85123        25.49129         5.77296
C         27.86645        26.32378         6.94679
C         27.67819        28.53162         4.74480
C         27.52289        28.36959         6.17051
C         27.61717        29.95597         4.22099
C         26.33826        30.69166         4.62598
C         26.79774        32.34527         2.74719
C         26.24635        31.95657         3.95092
C         26.68168        33.85316         2.47980
C         25.23518        34.50661         2.56691
C         25.85250        36.25436         0.75134
C         24.91098        35.73449         1.76728
C         25.49626        37.45265         0.05602
C         24.28329        38.12474         0.22756
C         25.27547        40.33553        -0.58966
C         24.07527        39.48490        -0.33081
C         25.22397        41.70637        -0.71259
C         23.85270        42.45240        -0.57478
C         24.79311        44.76759        -0.62358
C         23.95600        43.87858        -0.01581
C         25.16984        46.12363        -0.18737
C         24.36744        46.64901         0.96284
C         25.64761        48.79735         0.91727
C         24.34491        48.11298         1.16800
C         25.73095        50.27374         0.95865
C         29.40811        23.52003         4.07010
C         28.47641        23.14468         5.12748
C         29.12218        24.72806         3.32418
C         27.90185        26.06582         4.50329
C         28.29903        27.50369         2.51102
C         28.03620        27.41012         4.00525
C         28.13914        28.91854         2.04068
C         27.78701        30.06068         2.69254
C         28.30058        31.80187         0.86310
C         27.64594        31.39676         2.02864
C         28.31323        33.25933         0.48901
C         27.44196        34.27346         1.20155
C         27.94642        36.01954        -0.48713
C         27.07224        35.54821         0.48107
C         27.72368        37.30063        -1.18849
C         26.45488        38.04756        -0.90856
C         27.67306        40.26925        -1.49304
C         26.41229        39.54207        -1.13630
C         27.75660        41.66186        -0.95497
C         26.47422        42.41480        -1.00688
C         27.77156        44.55981        -1.18644
C         26.57419        43.74902        -1.32977
C         27.74869        45.97786        -0.96718
C         26.53096        46.73945        -0.48033
C         27.93302        48.85597        -0.23524
C         26.78954        48.05748         0.23519
C         28.08141        50.25377         0.19084
C         26.86119        50.94153         0.65921
C         32.04640        20.89500         4.11554
C         30.88067        21.53056         4.35435
C         31.55421        23.44881         2.89959
C         30.58571        22.83544         3.79443
C         31.37539        24.88912         2.50862
C         30.03187        25.49462         2.64344
C         30.78430        27.47544         1.07428
C         29.69605        26.81024         1.97347
C         30.70962        28.90135         0.59120
C         29.51319        29.56593         0.50028
C         30.50287        31.59443        -0.52303
C         29.30597        30.97331         0.14153
C         30.42655        33.02731        -0.95473
C         29.09868        33.72081        -0.72826
C         30.32492        35.93907        -1.27605
C         29.05079        35.18248        -1.02439
C         30.26011        37.40826        -1.50393
C         28.92614        38.04735        -1.72498
C         30.26147        40.26106        -1.75553
C         28.94256        39.54774        -1.83919
C         30.28555        41.67312        -1.54622
C         29.05221        42.39142        -1.10692
C         30.21076        44.57389        -1.34055
C         29.01008        43.86897        -1.20373
C         30.18609        45.98050        -1.36027
C         28.98603        46.66452        -1.03392
C         30.30812        48.89854        -1.13070
C         29.10331        48.11006        -0.69474
C         30.15929        50.38612        -1.39038
C         29.27102        51.06839        -0.34602
C         30.28347        53.22879        -0.98863
C         29.27041        52.55113        -0.42784
C         34.09060        19.26396         2.73493
C         34.06579        20.64629         2.57271
C         33.16895        21.56579         3.37791
C         33.65449        23.31302         1.59423
C         32.70918        22.77539         2.58977
C         33.50644        24.72961         1.10757
C         32.40442        25.56892         1.66778
C         33.24876        27.49600         0.40290
C         32.15918        26.87301         0.99109
C         33.18660        28.90580         0.00855
C         31.90507        29.61428         0.14009
C         33.02969        31.73078        -0.48391
C         31.79918        30.90832        -0.35686
C         32.98402        33.15371        -0.94071
C         31.66720        33.78082        -1.28173
C         32.74342        35.91744        -1.85040
C         31.61736        35.24605        -1.49045
C         32.68034        37.33358        -2.32176
C         31.41960        38.10455        -2.14334
C         32.71607        40.27235        -2.05771
C         31.45769        39.58478        -2.00891
C         32.73441        41.68886        -1.86215
C         31.49555        42.36602        -1.60520
C         32.75539        44.58418        -1.59567
C         31.49412        43.82738        -1.34785
C         32.70164        46.03931        -1.85374
C         31.40045        46.71266        -1.81094
C         32.70961        48.93601        -1.85895
C         31.42101        48.21878        -1.85998
C         32.69094        50.38741        -1.71446
C         31.49161        51.08463        -1.53737
C         32.76821        53.27236        -1.54994
C         31.42889        52.58235        -1.74225
C         32.83905        54.66016        -1.37986
C         36.13562        19.07862         1.40682
C         35.07495        18.48704         2.10807
C         36.16549        20.50688         1.27193
C         35.06066        21.26346         1.76073
C         35.96046        23.28299         0.67473
C         34.94389        22.63418         1.38651
C         35.86942        24.70419         0.41415
C         34.70761        25.43430         0.62964
C         35.66567        27.49260        -0.26828
C         34.57586        26.83852         0.29354
C         35.48577        28.77632        -1.03418
C         34.30514        29.54539        -0.49003
C         35.52624        31.71398        -1.23207
C         34.34523        31.01843        -0.57850
C         35.35190        33.09080        -1.75591
C         34.18089        33.77246        -1.56139
C         35.27764        35.99316        -2.13643
C         34.06276        35.24469        -1.75842
C         35.23094        37.40698        -2.60666
C         33.92788        38.12747        -2.57320
C         35.18395        40.25849        -2.30092
C         33.94282        39.58202        -2.30987
C         35.20327        41.68141        -2.13453
C         33.98216        42.38562        -1.93506
C         35.14451        44.54196        -2.10547
C         33.98925        43.83788        -1.92432
C         35.12029        46.01127        -2.27817
C         33.85925        46.75613        -2.05467
C         35.16006        48.90041        -1.88324
C         33.89213        48.21195        -2.01234
C         35.16080        50.35235        -1.82083
C         33.93806        51.09750        -1.81407
C         35.22276        53.23992        -1.70513
C         33.97915        52.54234        -1.68960
C         35.27859        54.64173        -1.55426
C         34.06004        55.32845        -1.34935
C         37.97553        16.18735        -0.20385
C         36.96462        16.93474         0.42762
C         38.41292        18.90458         0.37340
C         37.14870        18.27379         0.75259
C         38.46519        20.46534         0.28901
C         37.22572        21.18902         0.60438
C         38.25930        23.23142        -0.33889
C         37.15103        22.56158         0.31914
C         38.26244        24.63827        -0.44790
C         37.11723        25.39942         0.08360
C         38.13571        27.51016        -0.97141
C         36.99701        26.87969        -0.26642
C         38.02743        28.87500        -1.31469
C         36.77015        29.57828        -1.28041
C         37.87758        31.57207        -2.37181
C         36.70882        30.91876        -1.63178
C         37.85335        33.09558        -2.49728
C         36.51790        33.73380        -2.43593
C         37.71737        35.99162        -2.67112
C         36.47201        35.23373        -2.58290
C         37.71100        37.42215        -2.53065
C         36.49324        38.14937        -2.45647
C         37.69777        40.26168        -2.35495
C         36.45355        39.55188        -2.39609
C         37.68546        41.70509        -2.27194
C         36.46617        42.37777        -2.16755
C         37.66151        44.61502        -2.34191
C         36.45558        43.84968        -1.85385
C         37.67808        46.04576        -1.98102
C         36.42041        46.77548        -2.18289
C         37.60053        48.82544        -1.46137
C         36.37127        48.19963        -1.83762
C         37.54310        50.27590        -1.22433
C         36.37970        51.02368        -1.70820
C         37.79940        53.14532        -1.81106
C         36.45623        52.47076        -2.12041
C         37.82009        54.64941        -1.77487
C         36.55354        55.37409        -1.60652
C         37.82981        57.43218        -1.15861
C         36.62084        56.74880        -1.44442
C         40.13341        14.58103        -1.43348
C         40.22198        15.93896        -1.24554
C         39.18523        16.75646        -0.62461
C         40.46475        18.87621        -0.99343
C         39.38939        18.16658        -0.42653
C         40.48057        20.29296        -1.13990
C         39.44471        21.07238        -0.61555
C         40.41767        23.16313        -1.53508
C         39.35992        22.48732        -0.86131
C         40.44022        24.55999        -1.57963
C         39.35945        25.32185        -1.02967
C         40.55639        27.42957        -1.54999
C         39.33812        26.76427        -1.15291
C         40.60204        28.90664        -1.36012
C         39.27800        29.66087        -1.36565
C         40.42570        31.82566        -2.30939
C         39.20930        31.10129        -1.80801
C         40.27753        33.10106        -3.13402
C         38.95790        33.82963        -2.91642
C         39.93051        36.16446        -3.47749
C         38.87402        35.29463        -3.03526
C         40.12332        37.46202        -3.00452
C         38.94534        38.14341        -2.54517
C         40.20870        40.26528        -2.30060
C         38.91718        39.55541        -2.41378
C         40.16681        41.73760        -2.35907
C         38.96788        42.40661        -2.31041
C         40.15317        44.62930        -1.92274
C         38.96479        43.89103        -2.39665
C         40.08145        45.93928        -1.51574
C         38.83688        46.69313        -1.61472
C         40.04007        48.81297        -0.99229
C         38.80868        48.12400        -1.35327
C         40.04429        50.18173        -0.78234
C         38.81484        50.97452        -0.86952
C         40.18147        53.10155        -0.71877
C         38.98196        52.40676        -1.25733
C         40.22905        54.54829        -0.72926
C         39.12517        55.35155        -1.31158
C         40.19218        57.41884        -0.35825
C         39.02584        56.76930        -0.93091
C         40.24997        58.82188        -0.22403
C         42.41240        14.37663        -2.32561
C         41.25221        13.80674        -1.90831
C         42.52543        15.84872        -2.37539
C         41.51491        16.59993        -1.55438
C         42.78638        18.79109        -2.04369
C         41.62376        18.09194        -1.45938
C         42.79514        20.20618        -2.12091
C         41.42031        20.84796        -2.21175
C         42.81069        23.08433        -2.31941
C         41.43167        22.41441        -2.39937
C         42.84242        24.49160        -2.42480
C         41.50813        25.25284        -2.41055
C         42.83803        27.41596        -2.53543
C         41.63296        26.71708        -2.04890
C         43.11102        28.79665        -1.95878
C         41.84758        29.65418        -1.75217
C         42.92234        31.58392        -3.03165
C         41.73970        31.06495        -2.28370
C         42.92968        33.02504        -3.45951
C         41.60573        33.72999        -3.60340
C         42.85978        35.93983        -3.49835
C         41.79555        35.16375        -3.87967
C         42.75379        37.43763        -3.48164
C         41.42694        38.17215        -3.22044
C         42.76508        40.36421        -2.74045
C         41.50366        39.55555        -2.61555
C         42.74211        41.70411        -2.50175
C         41.45516        42.46628        -2.47812
C         42.66152        44.48395        -1.41579
C         41.44566        43.91980        -2.07216
C         42.59939        45.90576        -0.92942
C         41.27145        46.62763        -0.95120
C         42.50012        48.77000        -0.60420
C         41.28679        48.09360        -0.86124
C         42.51729        50.16748        -0.32431
C         41.19897        50.84940        -0.10290
C         42.43324        52.95910         0.26853
C         41.26021        52.34163        -0.27331
C         42.22920        54.36327         0.74652
C         41.25079        55.19237        -0.04807
C         42.38373        57.25445         0.76305
C         41.28681        56.62611         0.10097
C         42.40605        58.65368         0.85827
C         41.35826        59.42923         0.35269
C         45.09363        15.86595        -2.81131
C         43.83239        16.59093        -2.64290
C         45.17503        18.70474        -2.45485
C         43.92707        18.03774        -2.33550
C         45.21506        20.13285        -2.41723
C         44.00318        20.88783        -2.34449
C         45.24650        23.02799        -2.64571
C         44.01824        22.34886        -2.42287
C         45.28507        24.43472        -2.77280
C         44.06744        25.15533        -2.70193
C         45.39418        27.34435        -3.20730
C         44.05951        26.62633        -2.93755
C         45.44394        28.79668        -2.82069
C         44.23097        29.52779        -2.66933
C         45.39962        31.64277        -3.25396
C         44.20451        30.89747        -2.84156
C         45.37650        33.11698        -3.07230
C         44.15243        33.80989        -3.20176
C         45.27752        35.95867        -2.89628
C         44.10491        35.25746        -3.12687
C         45.35378        37.42297        -3.08860
C         44.06075        38.19239        -3.27434
C         45.34010        40.38763        -2.92461
C         44.06472        39.58471        -2.60540
C         45.34645        41.87489        -2.62668
C         43.99966        42.52538        -2.45993
C         45.20694        44.61801        -1.62673
C         43.95639        43.79462        -1.65288
C         45.11976        46.06732        -1.26685
C         43.82608        46.72235        -0.93719
C         45.02994        48.92104        -0.79488
C         43.77204        48.07096        -0.70384
C         44.94844        50.19354         0.04111
C         43.69528        50.84815         0.07763
C         44.75260        52.83785         1.19560
C         43.60396        52.23128         0.53685
C         44.55302        54.23780         1.64422
C         43.50137        55.05015         1.13323
C         44.43809        57.04159         2.17850
C         43.46731        56.44670         1.34503
C         46.28617        16.50902        -2.69302
C         47.62983        18.61389        -2.46765
C         46.37196        17.94028        -2.53897
C         47.67190        20.04695        -2.59711
C         46.48338        20.77668        -2.58772
C         47.85056        22.94626        -2.74746
C         46.47475        22.22661        -2.86513
C         47.83516        24.40922        -2.58707
C         46.61483        25.12445        -3.14464
C         47.80560        27.28600        -2.57490
C         46.63430        26.59723        -2.79897
C         47.88397        28.73693        -2.60538
C         46.67808        29.45648        -2.82656
C         47.92072        31.65434        -2.74906
C         46.71087        30.90336        -3.09354
C         47.83060        33.10307        -2.62953
C         46.57474        33.78401        -2.75145
C         47.71166        35.98755        -2.23831
C         46.43072        35.21602        -2.27854
C         47.70740        37.41706        -2.31144
C         46.58511        38.15424        -2.67075
C         47.94306        40.46882        -2.63445
C         46.64682        39.63751        -2.87167
C         47.75329        41.79593        -1.90103
C         46.57029        42.51217        -2.03736
C         47.62410        44.57080        -1.14526
C         46.50967        43.89298        -1.55763
C         47.50107        45.88745        -0.38911
C         46.33731        46.77171        -0.78926
C         47.49631        48.88670        -0.20625
C         46.27916        48.10395        -0.53170
C         47.37087        50.19824         0.42627
C         46.10839        50.82351         0.58271
C         47.22654        52.69526         1.79892
C         45.97902        52.13408         1.24664
C         47.24577        53.74533         2.74820
C         45.32785        54.85817         2.64170
C         45.30793        56.23333         2.89822
C         50.01733        18.58474        -1.93614
C         48.81444        17.90141        -2.18729
C         50.16122        19.93315        -2.19425
C         49.03026        20.70451        -2.85471
C         50.18181        22.82760        -1.86889
C         49.00964        22.15426        -2.41463
C         50.18201        24.34798        -1.78983
C         48.97749        25.07677        -2.24858
C         50.37344        27.30263        -2.15643
C         49.08519        26.54353        -2.48495
C         50.32026        28.78714        -2.02334
C         49.10157        29.45574        -2.38204
C         50.33398        31.62197        -2.33326
C         49.06213        30.90859        -2.45031
C         50.27900        33.16563        -2.25092
C         48.97736        33.84367        -2.24151
C         50.03369        35.97430        -1.46950
C         48.90504        35.26580        -1.98381
C         50.02447        37.36851        -1.31525
C         48.98768        38.11833        -2.04478
C         50.12133        40.25614        -1.22095
C         49.08432        39.61858        -2.06293
C         50.08219        41.67396        -1.06484
C         48.94288        42.43079        -1.38024
C         50.04025        44.53777        -0.40531
C         48.99029        43.95500        -1.33209
C         49.97026        45.87845         0.02380
C         48.79290        46.63292        -0.20015
C         49.90172        48.70706         0.74187
C         48.81166        48.08852        -0.05774
C         49.78300        49.99624         1.19751
C         48.67896        50.92506         0.65149
C         49.67620        52.87121         1.85765
C         48.50927        52.18932         1.45754
C         49.60729        54.08346         2.56771
C         48.37729        54.50438         3.05157
C         52.57629        19.89468        -1.32707
C         51.46463        20.59808        -1.98942
C         52.64281        22.77723        -1.21375
C         51.49684        22.11675        -1.88787
C         52.74212        24.25138        -1.42518
C         51.51273        25.05845        -1.79792
C         52.75094        27.23447        -1.31429
C         51.50968        26.52894        -1.63823
C         52.73746        28.73575        -1.20087
C         51.49224        29.51103        -1.63013
C         52.63847        31.75043        -1.48945
C         51.51981        30.91188        -1.83434
C         52.53043        33.05029        -1.02567
C         51.44168        33.85766        -1.60890
C         52.18460        35.80920        -0.15657
C         51.29464        35.26782        -1.19094
C         52.00725        37.23448         0.14176
C         51.07855        38.05212        -0.66928
C         52.27062        40.12587         0.05070
C         51.14048        39.47365        -0.61328
C         52.40937        41.53453        -0.00288
C         51.34187        42.33344        -0.63489
C         52.41787        44.39109         0.46100
C         51.31731        43.83109        -0.32861
C         52.34956        45.79220         0.78551
C         51.16085        46.54175         0.55400
C         52.28008        48.53560         1.43107
C         51.11075        47.90367         0.95164
C         52.15616        49.78247         2.26931
C         50.89841        50.61237         1.96977
C         52.25361        52.78046         2.08319
C         50.94244        52.10606         2.04786
C         53.59273        20.56884        -0.73805
C         54.88459        22.64626        -0.11731
C         53.66384        22.01614        -0.69888
C         54.98916        24.16943        -0.13361
C         53.95244        24.97381        -0.87600
C         54.96988        27.18009         0.13057
C         53.93462        26.46609        -0.75688
C         54.34084        28.37952         0.89624
C         53.69569        29.28248        -0.15835
C         54.80337        31.37918         0.71016
C         54.14916        30.53960        -0.31617
C         54.17996        32.72808         1.05759
C         53.24220        33.56023         0.19093
C         54.11861        35.69390         1.31188
C         53.15320        35.03820         0.47344
C         54.25417        37.09227         1.33589
C         53.14443        37.92720         0.85533
C         54.49225        39.97860         1.11679
C         53.30635        39.37354         0.66094
C         54.61276        41.38731         1.09763
C         53.53844        42.17126         0.57471
C         54.68648        44.21160         1.38868
C         53.54978        43.61158         0.76794
C         54.66154        45.64989         1.80659
C         53.50824        46.44246         1.26763
C         54.77724        48.54296         1.67626
C         53.48714        47.81626         1.52558
C         54.80302        49.93876         2.20610
C         53.45855        50.62720         2.39812
C         53.40049        52.09891         2.24754
C         56.78066        22.60508         1.41305
C         55.71076        21.95199         0.87508
C         56.90461        24.03704         1.38239
C         55.85965        24.82920         0.85845
C         56.26853        26.87782         2.19405
C         55.67884        26.24292         1.11934
C         56.39387        28.32073         2.34930
C         55.44963        29.09862         1.71322
C         55.81359        31.29816         3.01990
C         55.48145        30.58462         1.77909
C         55.83902        32.68402         3.04620
C         54.88531        33.43327         2.19872
C         56.07193        35.58372         2.95641
C         54.94090        34.93735         2.26655
C         56.31749        36.97627         2.71820
C         55.38731        37.70737         1.91343
C         56.77146        39.81692         2.31712
C         55.60309        39.13807         1.62777
C         56.70917        41.28163         2.42889
C         55.75054        42.01720         1.74570
C         56.96926        44.12666         2.30148
C         55.78786        43.46361         1.81800
C         57.11068        45.55044         2.10534
C         56.02375        46.30647         1.71807
C         57.30878        48.49047         2.08204
C         56.10414        47.77368         1.64096
C         57.27338        49.90141         2.12667
C         56.09978        50.63097         2.07625
C         59.40724        24.27034         1.24074
C         58.16860        24.66708         1.78127
C         59.14571        26.85252         2.42002
C         58.12795        25.88362         2.47913
C         58.91628        28.21690         2.92771
C         57.62569        28.82857         3.03069
C         58.71180        30.87892         3.97764
C         57.58413        30.07390         3.69106
C         58.57985        32.29113         4.36541
C         56.65637        33.42051         3.95006
C         58.15142        35.39293         4.30283
C         56.91727        34.79897         3.78827
C         58.08000        36.89297         4.53727
C         57.38469        37.63588         3.40496
C         58.69333        39.65767         3.90761
C         57.61594        39.02571         3.25296
C         58.82311        41.13837         3.89936
C         57.74158        41.97163         3.22397
C         59.22999        43.98506         3.31437
C         58.01472        43.38908         2.90622
C         59.45666        45.39992         3.08777
C         58.44309        46.16132         2.32769
C         59.64476        48.29092         3.11332
C         58.53863        47.72303         2.34933
C         60.49379        25.14550         1.31042
C         60.35678        26.43850         1.83026
C         60.04865        28.96437         3.32129
C         59.96930        30.28116         3.75767
C         59.52269        33.26578         4.18257
C         59.31586        34.67857         4.42561
C         59.37361        37.54608         4.93605
C         59.60136        38.86397         4.68775
C         60.12035        41.80324         4.05954
C         60.27450        43.14010         3.83534
C         60.57240        46.07163         3.56715
C         60.65147        47.49324         3.58532
O         56.31242        30.56356         4.07756
O         54.00102        34.14757         3.11686
O         33.01769        23.63287         0.27851
O         30.49206        36.93091        -0.15328
O         50.61342        32.48665        -3.49115
O         29.43495        30.95883        -1.33328
O         46.13419        31.19040        -4.42793
O         53.31798        28.13441        -2.38936
O         35.81094        46.45626        -3.49732
O         51.80359        43.29626        -1.64239
O         56.93474        26.14152         3.18933
O         24.54887        45.92303         2.22130
O         43.65366        28.50945        -0.68793
O         47.22877        22.55116        -4.05222
O         51.84291        21.45808        -3.12742
O         39.01895        19.73288         1.41675
O         56.24997        31.29938         0.66470
O         54.61829        25.80726        -1.87337
O         25.43612        44.39718        -1.80789
O         25.39475        35.83676         3.16984
O         34.54174        37.70621        -3.85302
O         34.94352        35.90564        -0.72016
O         46.01852        40.05450        -4.13939
O         41.98961        38.07482        -4.55554
O         56.87624        39.36952         0.91508
O         50.01132        26.87433        -3.55292
O         43.09212        27.12191        -3.94208
O         40.02795        29.40552        -0.13144
O         28.50906        34.18319        -1.96850
O         42.81020        16.35833        -3.70578
O         44.72212        42.64887        -3.71066
O         32.34148        44.23296        -0.20611
O         26.69460        48.09444         1.70080
O         40.69567        33.02297        -4.50981
O         52.75137        32.68516         1.32984
O         41.79513        46.00306         0.29027
O         40.72170        35.74509        -4.54131
O         55.51379        48.40499         0.43450
O         57.70616        41.73194         4.68086
O         25.37777        46.98891        -1.35731
O         23.09169        39.72146        -1.43588
O         23.40082        37.46770         2.51949
O         29.31510        50.56742         0.99601
O         41.00665        22.67045        -3.74168
O         25.44980        29.56160         6.65139
O         28.86045        34.14627         1.54725
O         42.11651        17.19935        -0.35804
O         28.59321        41.86116         0.22120
O         54.23231        50.16557         3.54467
O         30.91411        33.10109        -2.34006
O         27.79081        25.12926         3.45506
O         38.78003        55.17516        -2.72556
O         49.96076        23.55176        -0.58090
O         39.88816        32.05006        -0.96132
O         42.91698        31.94026        -4.45557
O         28.08883        40.12707        -2.88070
O         38.26919        44.33899        -3.62816
O         35.37397        31.63625         0.24942
O         50.58336        51.27831         3.24875
O         43.25933        43.60231        -0.38774
O         52.45225        24.57301        -2.82640
O         30.28009        48.40952         0.22776
O         38.82369        52.59702        -2.71233
O         28.28348        28.91948         0.64614
O         48.49152        48.82911        -1.31041
O         41.04749        39.64037        -1.22024
O         52.01172        34.93448        -2.46587
O         25.57222        32.94459         4.68578
O         58.94990        46.90259         1.19500
O         55.71895        23.34439        -1.10022
O         37.84969        50.70184         0.20312
O         28.07981        37.29252        -2.61712
O         41.55679        43.53856        -3.48760
O         32.45968        25.72061         3.13371
O         36.17364        34.36767        -3.72472
O         46.09110        54.04396         3.48251
O         28.52134        27.56297         6.77097
O         51.90244        37.57140         1.56986
O         31.73993        37.53606        -3.44617
O         49.62581        38.81251        -3.17930
O         44.89774        37.92282        -4.41225
O         25.88950        38.60293        -2.12752
O         31.08736        47.48151        -3.06659
O         42.14077        30.79295        -0.90772
O         37.44555        26.43310         1.06518
O         57.34366        32.68893         4.92969
O         45.19967        45.64732        -2.68519
O         29.70511        26.63116         0.52521
O         33.08164        32.84183         0.48939
O         53.91019        31.19600        -1.50919
O         54.38671        45.63381         3.26944
H         54.97650        44.96020         3.67347
O         46.74817        25.04784        -4.58734
H         46.27261        25.82729        -4.97490
O         35.09434        28.38393        -2.40277
H         34.32194        27.78175        -2.33827
O         45.10963        49.38575        -2.17711
H         45.29147        48.60886        -2.74858
O         46.03979        35.07553        -0.83581
H         46.72629        34.52704        -0.39827
O         44.15902        39.30730        -1.16889
H         43.25620        39.29559        -0.77911
O         28.73986        30.63264         4.83632
H         28.69541        31.58332         4.59421
O         36.61376        43.94234        -0.38593
H         35.85287        43.48469         0.03325
O         45.49482        27.40258        -4.68180
H         44.58915        27.61675        -5.01403
O         49.26025        20.66132        -4.29796
H         48.59576        21.26226        -4.71167
O         23.34538        42.53696        -1.92636
H         23.22850        41.61104        -2.24582
O         27.42287        34.43314         3.57092
H         27.07160        35.34307         3.71791
O         57.18218        37.04424         5.70064
H         57.14125        38.00026         5.91716
O         40.88453        20.26578        -3.43173
H         40.75782        21.04933        -4.04493
O         29.43138        50.51792        -2.65916
H         29.89524        49.97358        -3.33282
O         51.92622        49.19804         3.57748
H         51.56592        49.91549         4.14879
O         41.53505        54.19767         2.05595
H         41.94052        53.42822         2.51156
O         47.12760        45.42971         0.97685
H         47.14046        46.20647         1.57628
O         31.09012        52.76491        -3.16187
H         30.27293        52.23531        -3.32020
O         48.39249        40.91977        -3.92767
H         48.75734        40.13855        -4.40141
O         49.17280        51.35265        -0.65687
H         49.07742        50.57446        -1.26363
O         55.97687        27.72675        -0.73200
H         56.00931        27.16038        -1.53840
O         40.91450        50.67223         1.34885
H         40.72174        49.72111         1.49730
O         36.37632        52.43327        -3.58422
H         37.29319        52.29358        -3.91660
O         37.84614        31.04736        -3.72937
H         37.09564        31.45299        -4.21310
O         27.26196        26.80336         1.79827
H         27.49244        26.86252         0.84397
O         34.06693        22.11852         4.40824
H         33.55175        22.76513         4.93657
O         49.43472        44.36905        -2.66978
H         50.33207        43.97775        -2.80280
O         53.35100        27.82786         1.78734
H         53.01480        28.53617         2.37470
O         41.01113        25.27208        -3.77292
H         40.93480        24.29540        -4.03248
H         27.03864        25.09565         8.52663
H         26.56223        27.01909        10.00908
H         25.85313        29.08643         9.06821
H         23.30429        30.31634         6.16019
H         22.34157        32.03648         4.78377
H         21.91435        33.32989         2.82258
H         21.38822        35.43598         1.68405
H         20.96779        37.46353         1.16856
H         20.62491        39.76784         0.40139
H         21.36637        41.50415         1.74032
H         21.50853        43.87990         2.42127
H         21.19484        45.97433         2.33337
H         23.27616        49.74425         2.06388
H         21.28675        48.39817         2.65519
H         27.24965        23.63725         6.77699
H         24.83319        50.83499         1.25636
H         28.43583        22.08417         5.42018
H         26.88299        52.03636         0.75612
H         32.23206        19.91580         4.57920
H         30.10889        21.03833         4.96315
H         30.22569        54.32723        -1.00920
H         28.46031        53.10435         0.07102
H         33.33459        18.75853         3.35090
H         31.92061        55.25437        -1.28387
H         35.04455        17.39568         2.23087
H         34.05297        56.41720        -1.21049
H         37.78469        15.12164        -0.38826
H         36.02122        16.43137         0.68090
H         37.75739        58.51121        -0.96559
H         35.69930        57.34569        -1.41874
H         39.21239        14.03745        -1.18274
H         39.42787        59.44792        -0.59457
H         43.22449        13.75877        -2.73325
H         41.14311        12.71328        -1.93680
H         43.25348        59.16821         1.32904
H         41.40519        60.52407         0.43085
H         45.06551        14.79040        -3.03474
H         44.43950        58.12263         2.36541
H         47.21258        15.93078        -2.81161
H         45.96586        56.65243         3.66995
H         50.86423        18.00048        -1.55098
H         48.78936        16.81396        -2.04365
H         50.52606        54.60901         2.86072
H         48.29440        55.35739         3.73665
H         52.57596        18.79668        -1.28950
H         52.28413        53.87086         1.94458
H         54.41355        19.99716        -0.28434
H         54.35226        52.64849         2.28243
H         57.50085        22.05018         2.03190
H         55.52909        20.89473         1.11097
H         58.22236        50.44801         2.23171
H         56.14389        51.72247         2.19079
H         59.49443        23.31661         0.70262
H         59.64485        49.36751         3.33404
H         61.45321        24.84839         0.86568
H         61.20077        27.13660         1.74694
H         61.04061        28.49960         3.24679
H         60.89043        30.83667         3.98084
H         60.52997        32.97040         3.85310
H         60.24010        35.24290         4.62718
H         60.05941        37.00130         5.60026
H         60.49792        39.34524         5.10489
H         60.99898        41.19725         4.32317
H         61.27037        43.57728         3.99152
H         61.36572        45.51741         4.08608
H         61.50039        47.95423         4.10985
