         341
 CSIRO Nanostructure Databank - Neutral Graphene Oxide Data Set
C          1.38883         2.04804        -0.27895
C          1.38914         3.44042        -0.49868
C          2.57016         1.36632        -0.07106
C          2.57704         4.17886        -0.51877
C          1.38928         6.33004        -1.00700
C          1.38745         7.69394        -1.22489
C          2.58556         5.61388        -0.74840
C          2.59331         8.44523        -1.19487
C          1.49419        10.60818        -1.90683
C          1.50917        11.98707        -2.01476
C          2.58697         9.87126        -1.38639
C          2.47916        12.81990        -1.29820
C          1.60630        15.00675        -2.18362
C          1.69445        16.40068        -2.34810
C          2.65629        14.26181        -1.60978
C          2.86968        17.09174        -2.06245
C          2.95793        18.51312        -2.15708
C          3.81421         2.06238        -0.07377
C          3.82583         3.48918        -0.30453
C          5.01557         1.37426         0.14915
C          5.04847         4.18467        -0.30948
C          3.81492         6.33620        -0.73120
C          3.80905         7.73067        -0.95593
C          5.07367         5.62418        -0.50347
C          5.09658         8.45475        -1.01856
C          3.81150        10.64413        -1.10017
C          3.70040        12.07834        -0.71088
C          5.09797         9.94220        -0.87424
C          4.95591        12.81073        -0.50657
C          3.87058        14.90653        -1.26464
C          4.12508        16.29870        -1.80687
C          4.94942        14.21194        -0.66130
C          5.19984        17.08349        -1.09946
C          4.09895        19.18823        -1.80428
C          5.23269        18.49739        -1.23095
C          6.25749         2.04873         0.16102
C          6.28304         3.48088        -0.07018
C          7.46515         1.35215         0.35075
C          7.51010         4.15075        -0.05778
C          6.28251         6.29282        -0.44956
C          6.36622         7.73675        -0.70598
C          7.59499         5.57264        -0.52077
C          7.55462         8.49172        -0.24068
C          6.13671        10.58945         0.03909
C          6.16684        12.09527        -0.17502
C          7.49435         9.89359        -0.06541
C          7.31456        12.75913         0.19624
C          6.08460        14.98255        -0.11096
C          6.24151        16.42132        -0.42302
C          7.30025        14.21941         0.36667
C          7.37913        17.10988         0.02967
C          6.35152        19.19996        -0.76116
C          7.45256        18.52056        -0.18367
C          8.71019         2.01781         0.37386
C          8.73568         3.46614         0.20331
C          9.90838         1.31719         0.59775
C          9.92762         4.18499         0.34089
C          8.76228         6.34251         0.05494
C          8.73752         7.76696         0.09061
C          9.93714         5.63065         0.39046
C          9.90861         8.48429         0.48834
C          8.62350        10.58969         0.39146
C          8.43828        12.01050         0.87693
C          9.85890         9.90752         0.62851
C          9.72763        12.79725         0.86704
C          8.55806        14.93723         0.59167
C          8.47503        16.42877         0.84908
C          9.73416        14.20342         0.78677
C          9.81706        17.11210         0.67674
C          8.63977        19.22509         0.14648
C          9.83917        18.53174         0.44713
C         11.15738         1.97829         0.64588
C         11.24913         3.46406         0.34718
C         12.34259         1.30224         0.88322
C         12.25765         4.12232         1.28758
C         11.11661         6.33895         0.78139
C         11.10440         7.77379         0.81997
C         12.33513         5.62368         1.10192
C         12.26848         8.50196         1.17264
C         11.02538        10.61404         1.02372
C         10.97048        12.08928         1.34615
C         12.25211         9.92182         1.19213
C         12.26195        12.79199         1.00243
C         11.00753        14.93663         1.20040
C         11.01784        16.40135         0.77226
C         12.25434        14.15242         0.83800
C         12.24565        17.09570         0.65602
C         11.06545        19.22807         0.50119
C         12.28548        18.52573         0.60537
C         13.59704         2.00700         1.00523
C         13.59181         3.42367         1.17637
C         14.81722         1.32096         1.00180
C         14.79450         4.12085         1.33769
C         13.49022         6.29228         1.40143
C         13.48334         7.76825         1.69077
C         14.80782         5.60123         1.65413
C         14.78112         8.47413         1.35351
C         13.49321        10.67020         1.29972
C         13.50477        12.04614         1.09945
C         14.77659         9.95110         1.67848
C         14.75920        12.78608         1.08989
C         13.51993        14.86215         0.59154
C         13.51777        16.37324         0.51029
C         14.78627        14.17867         0.91395
C         14.78709        17.08866         0.69541
C         13.53374        19.20386         0.58498
C         14.77548        18.51986         0.67005
C         16.04506         2.02495         1.08902
C         16.02402         3.44494         1.24090
C         17.28400         1.33790         1.00034
C         17.31288         4.20190         1.43969
C         15.90244         6.29890         0.80443
C         15.93350         7.80134         1.04180
C         17.24739         5.63562         0.98288
C         17.19629         8.50048         0.84753
C         16.00838        10.65543         1.19175
C         15.99604        12.07213         1.14197
C         17.18998         9.95291         0.92259
C         17.22327        12.78861         1.10005
C         16.00614        14.91605         0.94944
C         16.00387        16.37903         0.83470
C         17.22369        14.21805         1.07593
C         17.21282        17.10311         0.89846
C         16.00528        19.21958         0.65950
C         17.23458        18.52706         0.74129
C         18.49360         2.05657         0.80540
C         18.51291         3.47644         0.89342
C         19.67290         1.37078         0.40899
C         19.65838         4.19479         0.48079
C         18.42164         6.33461         0.71614
C         18.39275         7.79505         0.63305
C         19.66044         5.64032         0.50164
C         19.63944         8.48292         0.45492
C         18.41061        10.68145         0.79438
C         18.44078        12.05220         1.03716
C         19.64309         9.97932         0.27922
C         19.72641        12.77029         1.36802
C         18.49128        14.92774         1.08474
C         18.48994        16.42041         1.30401
C         19.67262        14.24786         1.09973
C         19.72053        17.11748         0.80114
C         18.48201        19.21326         0.64480
C         19.71763        18.50678         0.60067
C         20.79972         2.07492        -0.01586
C         20.79125         3.48866        -0.00789
C         21.98108         1.32565        -0.52685
C         21.92274         4.23623        -0.67423
C         20.85851         6.35874         0.15644
C         20.84022         7.81611         0.23975
C         21.98715         5.69616        -0.31418
C         22.09845         8.53392         0.09825
C         20.90829        10.59768         0.91222
C         20.93989        12.12018         0.69205
C         22.16820         9.94103         0.41425
C         22.26474        12.75915         1.05706
C         20.96333        14.96834         1.19206
C         20.99749        16.35502         0.58977
C         22.26934        14.22039         1.21105
C         22.22963        17.15276         1.06101
C         20.96501        19.16998         0.29213
C         22.20061        18.52952         0.42429
C         23.27368         2.05625        -0.72011
C         23.28091         3.54238        -0.37721
C         24.56738         1.36817        -0.66902
C         24.44939         4.23879        -1.09649
C         23.17340         6.46260        -0.86522
C         23.25853         7.85554        -0.29570
C         24.47925         5.71127        -0.77326
C         24.52171         8.50067        -0.21258
C         23.36150        10.63326         0.48944
C         23.44604        12.06617         0.79821
C         24.59875         9.86695         0.31779
C         24.70803        12.77035         0.73805
C         23.51326        14.95941         0.89806
C         23.49933        16.35950         0.78152
C         24.72627        14.21942         0.74968
C         24.69713        17.04796         0.49381
C         23.41574        19.14716         0.09679
C         24.66238        18.46224         0.18584
C         25.76961         2.10004        -0.68191
C         25.75279         3.53090        -0.80170
C         27.03005         1.43884        -0.58935
C         26.95661         4.25454        -0.79891
C         25.68568         6.39304        -0.71686
C         25.71871         7.82577        -0.49873
C         26.94157         5.68975        -0.82342
C         26.96043         8.54246        -0.64396
C         25.91372        10.62705         0.18047
C         25.90999        12.10164         0.32217
C         27.02270         9.95175        -0.47944
C         27.10052        12.78271         0.13619
C         25.95370        14.92337         0.62629
C         25.94636        16.33738         0.49620
C         27.22651        14.11975         0.84336
C         27.16085        17.04854         0.27526
C         25.86308        19.12140        -0.09323
C         27.11379        18.44758        -0.02115
C         28.23869         2.14870        -0.63585
C         28.21544         3.57461        -0.74980
C         29.50989         1.48279        -0.56137
C         29.43525         4.31158        -0.81475
C         28.15213         6.41468        -0.95609
C         28.12791         7.83262        -1.01701
C         29.41657         5.72705        -0.96793
C         29.32359         8.55428        -1.55918
C         28.20132        10.69457        -0.83371
C         28.13035        12.21591        -0.81119
C         29.30926        10.04707        -1.31793
C         29.47697        12.89789        -0.77835
C         28.63725        14.83254         0.66173
C         28.48688        16.43709         0.62110
C         29.56755        14.25742        -0.39854
C         29.64552        17.11405        -0.07855
C         28.31442        19.17615        -0.17423
C         29.57172        18.52566        -0.26514
C         30.68303         2.19520        -0.59361
C         30.68040         3.61843        -0.71867
C         31.88446         4.37269        -0.73422
C         30.64216         6.47518        -0.98631
C         30.61884         7.88730        -1.16423
C         31.86636         5.74697        -0.84385
C         31.78532         8.70582        -1.07802
C         30.53798        10.78904        -1.78425
C         30.57636        12.24798        -1.37385
C         31.78030        10.04641        -1.33606
C         31.74869        12.97066        -1.63309
C         30.76195        14.97351        -0.67319
C         30.81422        16.42832        -0.45903
C         31.82520        14.32228        -1.32138
C         31.95922        17.18269        -0.79995
C         30.73418        19.25504        -0.62722
C         31.92859        18.58080        -0.83643
O          5.80884        10.39226         1.40327
O         11.07460        14.90093         2.61704
O         29.39273        14.56845         1.81667
O          6.26050        14.71600         1.32388
O          4.87199        10.57765        -2.16416
O          5.98467         8.03299        -2.12383
O         13.53926        15.52564        -0.72504
O         21.62216        14.75983         2.49236
O         25.52812         9.98632         1.45053
O          2.59242        12.45911         0.12738
O         18.54892        16.56238         2.78113
H         18.62046        17.52136         2.97879
O         13.35877         7.82745         3.16786
H         14.02500         7.18086         3.51714
O         22.93101         6.61103        -2.33594
H         23.50499         5.93621        -2.78026
O          8.09459        16.57519         2.24997
H          7.32121        15.97915         2.39729
O         27.12171        13.82474         2.26085
H         28.06456        13.91691         2.59754
O         20.88301        10.28531         2.32111
H         20.43988        11.02678         2.80922
O         20.79375        12.43310        -0.72877
H         21.60216        12.12718        -1.19309
O         15.14072         5.76700         3.05946
H         16.01843         5.32113         3.21639
O         11.78807         3.60599        -0.99850
H         11.11580         3.27824        -1.63188
O         22.15128        17.38562         2.48235
H         22.11653        16.50273         2.92462
O         17.48615         4.28806         2.93970
H         17.56650         3.36639         3.26935
O         30.52959        10.77080        -3.24804
H         30.30502         9.84196        -3.51118
O         19.87601        12.66718         2.82023
H         20.52336        13.36690         3.09450
O         28.54114        16.81612         2.02215
H         29.02625        16.03929         2.45392
O         19.63655        10.15679        -1.16571
H         19.64575        11.12780        -1.34489
O         22.41249         1.67849        -1.86787
O         10.78893        12.24170         2.78987
H         10.84399        13.24225         2.96247
O         15.50414         6.08220        -0.58243
H         16.20413         6.45119        -1.16119
O         21.64989         4.17738        -2.11250
H         21.62772         5.10465        -2.44894
O         27.58346        12.56234        -2.14767
H         28.28825        12.36104        -2.80270
O         21.14402        16.12843        -0.84741
H         21.06335        16.99796        -1.29492
O          7.88425         5.49589        -1.97931
H          7.54196         6.32180        -2.38997
O         11.76023         3.91679         2.63890
H         12.37591         4.36005         3.26002
O         24.23019         4.13282        -2.54569
H         23.43652         3.56158        -2.69524
O          7.97492        11.83335         2.25003
H          7.11214        11.31029         2.17303
O         14.84938        10.04788         3.14310
H         14.14761         9.44289         3.49670
O          4.69644        16.04849        -3.16069
H          3.97986        15.65833        -3.70631
O         23.53924         3.67139         1.03679
H         22.74068         3.38860         1.53003
O         29.23385         8.38528        -3.05442
H         28.30884         8.59239        -3.31097
H          0.43201         1.50763        -0.27224
H          0.42223         3.93723        -0.65265
H          2.56619         0.28084         0.10314
H          0.42861         5.79905        -1.03571
H          0.43337         8.20638        -1.40949
H          0.64529        10.06273        -2.34584
H          0.74367        12.47766        -2.63367
H          0.65144        14.51176        -2.40750
H          0.80025        16.95973        -2.66118
H          2.07556        19.07008        -2.50698
H          4.99195         0.28750         0.31923
H          4.14357        20.28331        -1.89162
H          7.43994         0.25991         0.48130
H          6.39654        20.29310        -0.87641
H          9.86912         0.23390         0.78988
H          8.67013        20.31695         0.01694
H         12.34226         0.20481         0.97199
H         11.07277        20.32291         0.40093
H         14.83122         0.22761         0.88385
H         13.53728        20.30108         0.50415
H         17.28828         0.24221         0.91058
H         16.00297        20.31630         0.58127
H         19.66420         0.27181         0.35511
H         18.47993        20.30326         0.50271
H         21.99615         0.23225        -0.32280
H         20.93394        20.21787        -0.04363
H         24.59149         0.26906        -0.68119
H         23.41299        20.18654        -0.26617
H         27.05029         0.34266        -0.49390
H         25.85183        20.19465        -0.33218
H         29.52805         0.38722        -0.46836
H         28.26308        20.26739        -0.30687
H         31.64848         1.67300        -0.52405
H         32.84525         3.84369        -0.65329
H         32.82255         6.28745        -0.85540
H         32.73918         8.23711        -0.79219
H         32.72944        10.59856        -1.27794
H         32.59716        12.48284        -2.13140
H         32.74242        14.86758        -1.57904
H         32.90332        16.67735        -1.04181
H         30.67161        20.34519        -0.75258
H         32.84045        19.13818        -1.09174
