         424
 CSIRO Nanostructure Databank - Neutral Graphene Oxide Data Set
C          1.27922         3.47425        -1.31400
C          0.08717         4.15159        -1.37083
C          1.19693         6.30097        -1.02365
C          0.05009         5.57019        -1.24942
C          1.15407         7.81664        -1.03249
C         -0.05705         8.42220        -0.36549
C          1.13277        10.54020        -0.03500
C         -0.06518         9.72301         0.00992
C          1.11693        11.94898         0.15928
C         -0.10115        12.69472         0.25455
C          1.11971        14.81870         0.33674
C         -0.09634        14.06437         0.33730
C          1.12869        16.25370         0.33132
C         -0.08740        16.99990         0.27269
C          1.13592        19.10985         0.12110
C         -0.08474        18.36692         0.17067
C          1.13964        20.52119        -0.04090
C         -0.04669        21.28202        -0.14842
C          1.18848        23.40756        -0.04363
C         -0.02734        22.66260        -0.21162
C          1.17942        24.84108         0.06317
C         -0.01314        25.58775        -0.14757
C          1.18535        27.69248         0.12823
C         -0.00870        26.96116        -0.12354
C          1.19371        29.13489         0.10848
C         -0.00336        29.87795        -0.01736
C          1.22147        31.97718         0.07008
C          0.01211        31.26172        -0.00892
C          1.20609        33.48508         0.21908
C          0.01411        34.18136        -0.38954
C          1.31106        36.23817        -0.63175
C          0.06660        35.49717        -0.68621
C          1.32284        37.64523        -0.77702
C          3.73417         3.50242        -1.15644
C          2.50718         4.17802        -1.10340
C          3.64912         6.32304        -0.68943
C          2.46384         5.61770        -0.91772
C          3.65118         7.75333        -0.52157
C          2.41996         8.47753        -0.54649
C          3.59490        10.58928        -0.05305
C          2.38126         9.86212        -0.22590
C          3.58726        11.96616         0.17185
C          2.34793        12.68177         0.21922
C          3.59669        14.82720         0.32599
C          2.35051        14.10333         0.30344
C          3.60857        16.24124         0.40019
C          2.36281        16.97306         0.35727
C          3.60610        19.13336         0.38866
C          2.36967        18.39428         0.26765
C          3.64357        20.50814         0.24608
C          2.44280        21.23655        -0.29579
C          3.61075        23.39769         0.34600
C          2.40826        22.70525         0.05765
C          3.58996        24.79704         0.52660
C          2.38881        25.53981         0.35529
C          3.58681        27.72241         0.64369
C          2.38474        26.98493         0.39943
C          3.64009        29.11563         0.47873
C          2.42669        29.83894         0.22508
C          3.70068        31.97473         0.22912
C          2.43309        31.26668         0.17475
C          3.69574        33.40271        -0.01484
C          2.51665        34.12861        -0.17895
C          3.77828        36.23584        -0.65142
C          2.53475        35.53927        -0.47603
C          3.77905        37.68561        -0.75007
C          2.51280        38.34466        -0.75811
C          6.18847         3.51106        -1.04309
C          4.96639         4.16902        -0.95390
C          6.17181         6.37455        -0.64124
C          4.92472         5.57088        -0.39184
C          6.13572         7.74029        -0.42756
C          4.87394         8.42128        -0.30483
C          6.02863        10.47658         0.55433
C          4.91454         9.92297        -0.33001
C          6.05800        11.99405         0.42497
C          4.84416        12.68842         0.29029
C          6.06924        14.82586         0.30522
C          4.83576        14.11295         0.31646
C          6.06547        16.26039         0.40345
C          4.85052        16.94027         0.49710
C          6.11522        19.12389         0.59677
C          4.82722        18.39653         0.88993
C          6.10912        20.53074         0.55026
C          4.86530        21.25750         0.44580
C          6.09845        23.38833         0.63030
C          4.86287        22.66271         0.48065
C          6.11356        24.79976         0.84242
C          4.80933        25.48520         1.00237
C          6.07029        27.74237         1.23515
C          4.77626        26.99393         1.12929
C          6.07310        29.18892         0.94464
C          4.89973        29.84703         0.62552
C          6.17214        32.00502         0.46680
C          4.89939        31.28871         0.42377
C          6.15792        33.42201         0.17672
C          4.96202        34.08305        -0.09384
C          6.22092        35.99195        -0.89122
C          4.96829        35.46775        -0.51455
C          6.22848        38.09268        -1.01168
C          4.93482        38.52256        -0.66618
C          8.63416         3.52283        -0.79040
C          7.43409         4.19801        -0.92126
C          8.68438         6.37758        -0.65033
C          7.42536         5.69570        -1.13012
C          8.68738         7.89393        -0.70996
C          7.37118         8.52503        -0.29744
C          8.56602        10.51315         0.57432
C          7.33549         9.80202         0.17750
C          8.52841        11.99970         0.76622
C          7.26828        12.71721         0.48090
C          8.58662        14.81122         0.00794
C          7.28963        14.10657         0.31413
C          8.55332        16.28386         0.36051
C          7.33674        16.97155         0.46333
C          8.57513        19.11901         0.47411
C          7.33709        18.40710         0.53407
C          8.57175        20.54367         0.50848
C          7.34482        21.25186         0.53047
C          8.56010        23.40814         0.54497
C          7.33263        22.68379         0.57401
C          8.55824        24.83021         0.61901
C          7.32859        25.51222         0.85475
C          8.60567        27.73542         0.78137
C          7.37202        26.97407         1.11611
C          8.60698        29.13901         0.82134
C          7.36208        29.91837         1.25578
C          8.65260        32.10347         0.98027
C          7.35675        31.34912         0.77045
C          8.67794        33.47625         0.34547
C          7.40077        34.25206         0.41144
C          8.63094        36.26147        -0.55430
C          7.45314        35.51362        -0.42689
C          8.66687        37.70272        -0.67960
C          7.50668        38.54122        -0.63736
C         11.09898         3.52491        -0.63289
C          9.88684         4.20943        -0.62772
C         11.07819         6.34805        -0.06009
C          9.83546         5.66540        -0.48043
C         11.10904         7.82904        -0.02031
C          9.89376         8.52979        -0.05322
C         11.06736        10.55135         0.70183
C          9.87844         9.86943         0.37098
C         11.03916        11.98130         1.21887
C          9.80347        12.73640         0.76759
C         11.06992        14.80196         0.52607
C          9.82312        14.08465         0.51632
C         11.04267        16.23488         0.19240
C          9.78244        16.99306         0.33275
C         11.06936        19.12233         0.44454
C          9.80895        18.40051         0.39030
C         11.04681        20.57447         0.48481
C          9.81385        21.26928         0.47903
C         11.01195        23.41298         0.27058
C          9.79516        22.69439         0.44783
C         10.99870        24.85429         0.24627
C          9.79727        25.55726         0.47768
C         11.02275        27.71113         0.35067
C          9.80209        27.00090         0.52684
C         11.01413        29.11897         0.33658
C          9.82575        29.85063         0.57860
C         11.08019        31.98260         0.42108
C          9.87106        31.29441         0.59402
C         11.10850        33.42913         0.28798
C          9.84703        34.11277         0.06533
C         11.16505        36.24857        -0.19482
C          9.92507        35.47856        -0.57946
C         11.15434        37.68157        -0.36622
C          9.93288        38.35234        -0.58085
C         13.59075         3.54022        -0.64537
C         12.37468         4.16873        -0.47414
C         13.63037         6.34744        -0.10172
C         12.36751         5.59046        -0.05927
C         13.63359         7.85769        -0.05129
C         12.30791         8.50355         0.25920
C         13.56632        10.57711         0.82200
C         12.30056         9.87439         0.59177
C         13.54479        12.01741         0.92191
C         12.32626        12.72175         0.92990
C         13.53361        14.89780         0.82502
C         12.29395        14.14402         0.75073
C         13.57438        16.27595         0.68336
C         12.35351        17.00404         0.28157
C         13.53533        19.17821         0.86908
C         12.27856        18.45002         0.48194
C         13.54127        20.60823         0.40423
C         12.26457        21.30491         0.37446
C         13.47899        23.38146        -0.30253
C         12.22519        22.69620         0.17224
C         13.46564        24.87167        -0.09585
C         12.24922        25.56348         0.08875
C         13.50626        27.65986         0.13361
C         12.27124        26.98392         0.18086
C         13.52056        29.12039         0.48866
C         12.29037        29.82189        -0.07137
C         13.54131        31.94409         0.33534
C         12.31503        31.28027         0.28163
C         13.55271        33.40431         0.58298
C         12.29926        34.13595         0.31567
C         13.60965        36.28671         0.17570
C         12.33730        35.56955         0.10431
C         13.60499        37.73019        -0.07381
C         12.37714        38.38970        -0.29754
C         16.04705         3.65789        -0.84780
C         14.85055         4.25817        -0.55803
C         16.07463         6.42417        -0.07348
C         14.81727         5.69382        -0.25839
C         16.06082         7.74572         0.43503
C         14.75118         8.37520         0.84679
C         16.02869        10.58100         0.97274
C         14.77212         9.88942         0.86095
C         16.02464        12.02267         1.03607
C         14.79906        12.70834         1.02137
C         16.09881        14.92460         1.12252
C         14.75981        14.16464         1.19259
C         16.06266        16.34038         0.74142
C         14.82015        17.02455         0.71066
C         16.01240        19.13612         0.33010
C         14.80875        18.43148         0.56039
C         16.00085        20.57396         0.16163
C         14.73600        21.27104         0.23931
C         15.96889        23.43338        -0.24471
C         14.73356        22.77703         0.31279
C         15.93624        24.83270        -0.40152
C         14.69251        25.55528        -0.20109
C         15.96873        27.68538        -0.24126
C         14.71530        26.97195        -0.08787
C         15.98705        29.11249        -0.08649
C         14.80612        29.83603         0.13278
C         15.98873        32.02786        -0.14651
C         14.77404        31.25143         0.18556
C         16.08252        33.46780         0.13250
C         14.84803        34.16377         0.55842
C         16.10065        36.35680         0.60908
C         14.80156        35.62791         0.37103
C         16.07974        37.77852         0.07849
C         14.82495        38.41727        -0.15669
C         18.57666         3.68030        -0.78695
C         17.31124         4.45515        -1.04430
C         18.51138         6.41573         0.05200
C         17.29453         5.77991        -0.32123
C         18.49164         7.74030         0.55948
C         17.26622         8.43659         0.67365
C         18.50005        10.58078         0.93038
C         17.24661         9.86925         0.94499
C         18.50368        12.00224         0.93910
C         17.29261        12.73620         1.01324
C         18.53990        14.87113         0.65190
C         17.32586        14.15514         0.93072
C         18.51665        16.28874         0.43047
C         17.26955        17.01657         0.46098
C         18.46148        19.13402        -0.03410
C         17.24638        18.42544         0.23713
C         18.42432        20.54302        -0.28332
C         17.17763        21.26321        -0.17713
C         18.31874        23.40026        -0.86819
C         17.15661        22.70169        -0.42806
C         18.30970        24.79400        -1.01249
C         17.13116        25.54835        -0.71507
C         18.33770        27.73810        -1.02736
C         17.12444        26.98030        -0.63487
C         18.48156        29.14036        -0.61734
C         17.31326        29.82604         0.03855
C         18.53769        32.01725        -0.37643
C         17.26135        31.27646        -0.38482
C         18.51956        33.43153        -0.30868
C         17.27643        34.15160        -0.03802
C         18.51960        36.27906         0.02214
C         17.33736        35.59227         0.16013
C         18.55979        37.76291         0.35251
C         17.27285        38.43810        -0.05453
C         19.72804         4.31137        -0.42028
C         20.97485         6.38444         0.22282
C         19.75209         5.70078        -0.06563
C         20.99517         7.66347         0.69829
C         19.74107         8.38365         1.10685
C         20.89367        10.57146         0.39127
C         19.72746         9.86560         0.81214
C         20.93465        11.93573         0.39362
C         19.82859        12.71997         1.04881
C         20.95900        14.89763         0.44037
C         19.77706        14.17891         0.65141
C         20.93682        16.26657         0.18456
C         19.72548        16.98862         0.17228
C         20.86398        19.13738        -0.41520
C         19.69750        18.42449        -0.08691
C         20.81385        20.49860        -0.71085
C         19.61538        21.21682        -0.64151
C         20.76181        23.47117        -0.60001
C         19.60871        22.64362        -1.14928
C         20.75927        24.80036        -0.75225
C         19.60687        25.45670        -1.48143
C         20.85899        27.73350        -1.31246
C         19.59888        26.98354        -1.41277
C         20.86666        29.07835        -1.11479
C         19.67256        29.82602        -0.77520
C         20.93938        32.01452        -0.62577
C         19.73602        31.28540        -0.55235
C         20.93859        33.40429        -0.56237
C         19.74527        34.14105        -0.42007
C         20.85493        36.35052        -0.70407
C         19.74563        35.60161        -0.36499
C         20.83239        37.78775        -0.67635
C         19.76356        38.46899        -0.20510
O         11.61823         5.79911         1.20294
O          6.24094        36.97388        -1.88378
O         18.70511        27.51860        -2.45123
O         14.25592        33.73597         1.84835
O          4.54981        26.14603         2.29776
O         15.41818        14.64878         2.40173
O         11.80871        16.56178        -1.02489
O          6.83290        27.37077         2.43949
O         16.43688        31.62300        -1.52706
O          8.41216        11.08786         1.94641
O         19.77508        22.50341        -2.58353
H         19.79467        23.41769        -2.96836
O         20.16664        12.73123         2.49181
H         20.14316        11.79845         2.79782
O         18.64080        37.88257         1.81136
H         17.86185        37.39245         2.17801
O          4.71002        18.38261         2.36367
H          4.72330        19.31577         2.66612
O         13.48653        19.26308         2.34678
H         14.24947        19.80791         2.63532
O          2.61181        21.20605        -1.77404
H          1.81565        21.63268        -2.15786
O         19.76944        25.16559        -2.90428
H         19.17530        25.79343        -3.37811
O         13.40344        29.19616         1.93974
H         14.20981        28.80384         2.33405
O         19.67010         8.27543         2.58629
H         19.58326         7.32279         2.80362
O          8.69900        14.77203        -1.45807
H          9.50612        15.27335        -1.70640
O          8.73122        32.35623         2.43404
H          8.42126        31.52511         2.87909
O         17.34679         4.77037        -2.49373
H         18.14557         5.31894        -2.64713
O         13.56055        23.13848        -1.73830
H         12.77559        23.54556        -2.16046
O          8.84225         8.20648        -2.13966
H          8.18004         7.64752        -2.61754
O         10.11971        35.19200        -2.02137
H         10.17287        36.05583        -2.48396
O         13.97580         8.31551        -1.39725
H         13.24780         8.06532        -2.00370
O         14.69844        23.10155         1.73780
H         15.53322        22.78260         2.13979
O         10.95125        11.89041         2.68129
H         10.07099        11.48508         2.87476
O         17.59948        29.87592         1.48184
H         17.70052        28.95522         1.80244
O          4.88923         5.36977         1.07877
H          4.06513         4.87805         1.28346
O          7.45057        29.98130         2.73063
H          7.33534        29.04638         3.04538
O          1.04370         8.17719        -2.46586
H          0.93726         9.15176        -2.50787
O          5.74138        10.15290         1.93213
H          6.52986        10.43054         2.45414
O         14.46943         7.92737         2.19875
H         15.14159         8.31480         2.79700
O          1.08736        33.71139         1.67346
H          1.13774        34.68015         1.81951
O          5.28636        10.28989        -1.70100
H          4.60899         9.91956        -2.30518
O          7.40035         5.88299        -2.60854
H          8.07300         5.27717        -2.98797
O         12.37200        29.72905        -1.52511
H         11.64078        30.25884        -1.90575
O          7.31005        34.71476         1.80638
H          7.66585        33.97725         2.36425
O         16.22928        36.46225         2.07581
H         15.35428        36.72065         2.43649
H          1.30940         2.38250        -1.44134
H         -0.85174         3.60610        -1.54003
H         -0.91777         6.07817        -1.36211
H         -0.98159         7.83107        -0.29259
H         -0.99183        10.16150         0.40840
H         -1.06414        12.16594         0.23836
H         -1.06138        14.58516         0.39500
H         -1.05278        16.47741         0.28440
H         -1.04716        18.89134         0.10605
H         -1.02404        20.77987        -0.15217
H         -0.98595        23.19049        -0.29040
H         -0.95637        25.07101        -0.36594
H         -0.94780        27.49215        -0.32488
H         -0.97194        29.36584        -0.08061
H         -0.94656        31.79438        -0.05401
H         -0.95065        33.65860        -0.44500
H         -0.83781        36.03197        -1.01447
H          0.36784        38.18228        -0.87017
H          3.74371         2.43564        -1.42859
H          2.49704        39.44273        -0.81728
H          6.20181         2.42036        -1.20104
H          4.79126        39.54955        -0.29621
H          8.63048         2.42254        -0.74683
H          7.62737        39.56271        -0.24544
H         11.08697         2.43764        -0.80724
H          9.95338        39.45086        -0.64787
H         13.62035         2.47690        -0.92974
H         12.37618        39.47802        -0.45980
H         16.07219         2.58938        -1.11309
H         14.82208        39.48243        -0.43450
H         18.59476         2.61357        -1.05573
H         17.28913        39.49813        -0.35328
H         20.67134         3.74624        -0.36286
H         21.92242         5.85050         0.05167
H         21.96107         8.12003         0.95930
H         21.77266        10.00486         0.05144
H         21.85731        12.44781         0.08762
H         21.93099        14.38826         0.48720
H         21.89193        16.78061         0.01532
H         21.83167        18.62325        -0.48315
H         21.73395        21.00930        -1.02735
H         21.59865        22.97112        -0.08861
H         21.58825        25.41448        -0.36921
H         21.80986        27.19793        -1.44567
H         21.83294        29.60114        -1.11973
H         21.90030        31.49740        -0.75088
H         21.90131        33.93008        -0.62311
H         21.77765        35.85915        -1.04169
H         21.71750        38.32806        -1.04305
H         19.77452        39.56838        -0.16445
