         598
 CSIRO Nanostructure Databank - Neutral Graphene Oxide Data Set
C         23.03965        69.50924         2.27152
C         23.11406        70.81676         2.79964
C         21.97325        71.63632         3.04293
C         23.03676        73.92407         2.86029
C         21.96114        73.04324         3.04190
C         25.45107        65.37579         1.01252
C         25.45018        66.77581         1.20482
C         24.23125        67.49046         1.47630
C         25.45604        69.63737         1.66911
C         24.20880        68.84548         1.80720
C         25.56910        70.93179         2.37067
C         24.42822        71.36571         3.01436
C         25.55364        73.94909         2.41442
C         24.38927        73.51081         3.02634
C         27.79866        61.17629        -0.07505
C         27.82562        62.56316         0.21782
C         26.65970        63.24939         0.60687
C         27.89903        65.36165         0.86981
C         26.65616        64.66057         0.83588
C         27.91837        66.74477         1.09540
C         26.70159        67.45428         1.23107
C         28.01547        69.52332         1.92922
C         26.73876        68.91749         1.37727
C         28.01134        71.04946         1.98340
C         26.78370        71.71330         2.30386
C         27.97026        73.85219         2.11250
C         26.76523        73.15861         2.34673
C         30.21412        57.05511        -1.08050
C         30.15145        58.46506        -1.21829
C         28.96719        59.13728        -0.77585
C         30.04502        61.35592        -1.10986
C         28.91773        60.52071        -0.62582
C         30.18726        62.70800        -0.52061
C         29.08067        63.26999         0.11428
C         30.35738        65.42956         0.30987
C         29.19639        64.60079         0.79829
C         30.38595        66.79565         0.59402
C         29.17985        67.49149         1.02933
C         30.42676        69.60431         1.00774
C         29.19414        68.85127         1.24749
C         30.44770        71.05830         1.48065
C         29.21036        71.76566         1.91126
C         30.38782        74.01094         1.71925
C         29.21609        73.20975         1.96449
C         32.78555        52.84484        -0.61388
C         32.56814        54.13594        -1.26795
C         31.46866        54.99045        -0.86905
C         32.59784        57.01315        -1.76488
C         31.41284        56.32736        -1.28935
C         32.48877        58.46035        -2.20041
C         31.29383        59.17619        -1.63516
C         32.58705        61.35688        -1.70199
C         31.31464        60.63050        -1.66239
C         32.52769        62.81023        -1.45607
C         31.41344        63.42009        -0.68140
C         32.74985        65.48257        -0.26117
C         31.50785        64.76958        -0.23531
C         32.83342        66.81101         0.17684
C         31.63628        67.50791         0.54607
C         32.94774        69.53983         1.04605
C         31.69422        68.86818         0.89752
C         32.97506        70.91282         1.54243
C         31.74942        71.48139         1.93936
C         32.93426        73.92564         1.41699
C         31.70244        73.55792         1.96225
C         35.59142        49.22006         1.09146
C         35.43533        50.38424         0.27410
C         34.19100        50.99908         0.15746
C         35.16922        52.72492        -1.34591
C         33.99536        52.18350        -0.61954
C         35.10307        54.13353        -1.92137
C         33.80441        54.86375        -1.88138
C         35.04827        57.02234        -2.14498
C         33.81124        56.33614        -1.88841
C         35.00005        58.48015        -2.35196
C         33.77729        59.23298        -2.01841
C         35.10054        61.34257        -1.95566
C         33.81312        60.64073        -1.90621
C         35.08714        62.83240        -1.93806
C         33.83199        63.56120        -1.52207
C         35.29876        65.46317        -0.54000
C         33.97693        64.75287        -0.63467
C         35.29531        66.86217        -0.07369
C         34.10791        67.50461         0.26519
C         35.41484        69.47641         1.15346
C         34.13679        68.85105         0.77924
C         35.42904        70.94032         1.60687
C         34.16242        71.68787         1.64188
C         35.36022        73.81742         1.34271
C         34.15063        73.14302         1.54323
C         38.24921        45.42259         2.84234
C         37.85695        46.76238         2.66160
C         36.74834        47.32154         2.02297
C         38.06765        49.16526         0.77621
C         36.80474        48.63838         1.44391
C         37.87352        50.19352        -0.31957
C         36.59445        50.94602        -0.39609
C         37.66499        52.83637        -1.61883
C         36.50127        52.15281        -1.06270
C         37.56915        54.22673        -2.08731
C         36.34999        54.91633        -2.05353
C         37.53299        57.06822        -2.38244
C         36.28960        56.34029        -2.22542
C         37.58900        58.48349        -2.33619
C         36.33401        59.23973        -2.40549
C         37.61766        61.32643        -2.01490
C         36.32447        60.67847        -2.08164
C         37.67002        62.79510        -2.06780
C         36.38723        63.57983        -1.94537
C         37.77111        65.66564        -1.20917
C         36.44990        64.98933        -1.39268
C         37.85266        66.80689        -0.23273
C         36.59907        67.47300         0.23876
C         37.87344        69.58731         0.63752
C         36.67422        68.88177         0.65783
C         37.93137        70.98751         1.00170
C         36.74309        71.65871         1.54586
C         37.88097        73.87279         0.98093
C         36.68021        73.20004         1.45133
C         40.87585        41.60971         4.22275
C         40.86458        42.94956         3.83031
C         39.65767        43.64193         3.57639
C         40.83184        45.87871         3.20315
C         39.56100        44.98103         3.16424
C         40.81291        47.06122         2.23870
C         39.73801        47.90497         2.22126
C         40.58389        49.50599         0.60753
C         39.48784        48.91418         1.21909
C         40.38133        50.56167        -0.37912
C         39.06418        50.77048        -1.09585
C         40.04637        52.82057        -2.21891
C         38.89713        52.23205        -1.50164
C         39.94518        54.18209        -2.86522
C         38.74224        54.94875        -2.50576
C         39.95760        57.09332        -3.02260
C         38.74400        56.33928        -2.58081
C         40.05403        58.52235        -2.61559
C         38.83341        59.18703        -2.29911
C         40.12828        61.26066        -1.85963
C         38.83924        60.61529        -2.09299
C         40.16160        62.61818        -1.49816
C         39.00981        63.46946        -1.81768
C         40.31996        65.51110        -0.91250
C         39.06454        64.93560        -1.48144
C         40.30953        66.90296        -0.39569
C         39.09740        67.59810        -0.21175
C         40.33926        69.65629         0.17654
C         39.10589        68.93489         0.22009
C         40.32874        71.06826         0.40198
C         39.10535        71.72619         0.79392
C         40.30719        73.89263         0.67705
C         39.08114        73.18092         0.85417
C         43.23745        37.33109         4.96744
C         43.24315        38.67420         4.55912
C         42.07927        39.49129         4.64988
C         43.29110        41.41732         3.71254
C         42.07107        40.82973         4.24341
C         43.28402        42.72581         3.17936
C         42.14343        43.61319         3.48452
C         43.18645        45.40581         2.00588
C         42.14197        45.04572         3.01523
C         43.14095        46.63378         1.30866
C         42.03981        47.58339         1.61334
C         43.07355        49.18144        -0.06267
C         41.95281        48.92658         0.89106
C         43.24017        50.47355        -0.58008
C         41.37656        51.43553        -0.72394
C         42.54310        52.82773        -2.42055
C         41.38617        52.34652        -1.84722
C         42.52610        54.09667        -3.19492
C         41.22515        54.85440        -3.30143
C         42.53056        57.10981        -3.49880
C         41.21217        56.35260        -3.41513
C         42.52556        58.58849        -3.17155
C         41.28923        59.20952        -2.60835
C         42.64852        61.15923        -1.86645
C         41.36759        60.52525        -2.06449
C         42.68398        62.38970        -1.05802
C         41.35131        63.20051        -0.87699
C         42.67818        65.20438        -0.18233
C         41.48677        64.64320        -0.62469
C         42.63252        66.64549         0.26842
C         41.53382        67.53865        -0.18729
C         42.74485        69.75370        -0.40216
C         41.56489        68.97793        -0.11495
C         42.73649        71.14703        -0.12912
C         41.53336        71.79918         0.26708
C         42.74115        73.96329         0.43917
C         41.51349        73.23649         0.46371
C         45.66148        34.45613         5.23284
C         44.43748        35.17361         5.23358
C         45.52824        37.04895         4.05889
C         44.37174        36.49683         4.78894
C         45.62409        38.50536         3.91765
C         44.49158        39.27242         4.10780
C         45.65669        41.23556         3.15093
C         44.49189        40.67057         3.71283
C         45.56843        42.43300         2.42401
C         44.39227        43.22541         2.47060
C         45.27986        44.84019         0.83308
C         44.29656        44.51007         1.76724
C         45.13452        46.00156        -0.05695
C         44.08007        46.95657         0.30109
C         45.03209        48.54804        -1.38254
C         44.03802        48.19973        -0.40060
C         44.76760        49.69099        -2.17331
C         43.90745        50.73009        -1.78059
C         45.08715        52.81359        -2.56862
C         43.79600        51.98796        -2.64205
C         45.07953        54.16542        -2.74429
C         43.84894        54.85108        -3.26533
C         45.12597        57.09246        -3.18145
C         43.84608        56.35341        -3.44210
C         45.17027        58.58481        -3.20847
C         43.84990        59.32971        -3.05312
C         45.11465        61.35482        -2.29650
C         43.87228        60.63658        -2.36193
C         45.00587        62.72204        -1.77764
C         43.89667        63.19657        -1.02967
C         45.23362        65.07898        -0.23336
C         43.92969        64.46824        -0.36598
C         45.27096        67.36090        -2.08538
C         43.97772        67.99952        -1.76168
C         45.19108        69.98900        -1.22079
C         43.92303        69.16492        -1.01551
C         45.15862        71.34338        -0.57588
C         43.97273        71.92513        -0.20921
C         45.17966        74.04963         0.31027
C         43.95069        73.33788         0.17745
C         46.83002        34.97557         4.72287
C         48.06720        36.90713         3.55765
C         46.82572        36.22013         3.96797
C         48.10591        38.26969         3.29976
C         46.99788        39.13954         3.89285
C         48.17951        41.11802         2.68012
C         46.96957        40.56326         3.34420
C         48.05094        42.32416         1.82349
C         46.68329        42.81878         1.53779
C         47.73340        44.74669         0.24544
C         46.49456        44.01346         0.67091
C         47.59719        45.72177        -0.88534
C         46.27479        46.44154        -0.99424
C         47.48011        48.46427        -1.88643
C         46.28805        47.83810        -1.50372
C         47.57087        49.91238        -2.06002
C         46.50282        50.65272        -2.55124
C         47.66718        52.81265        -2.01213
C         46.33743        52.07379        -2.23897
C         47.64681        54.29184        -2.30110
C         46.32044        54.97973        -2.59501
C         47.56833        57.12848        -3.41775
C         46.29354        56.40105        -3.03903
C         47.63420        58.55377        -2.85566
C         46.43509        59.27319        -2.80464
C         47.69154        61.35612        -2.55372
C         46.38860        60.70795        -2.58648
C         47.83141        62.78783        -2.60497
C         45.98581        63.70223        -2.03193
C         47.60272        65.46367        -1.05551
C         46.24188        64.77392        -1.17299
C         47.54285        66.98609        -1.05728
C         46.46533        67.80782        -1.31996
C         47.52647        69.80833        -0.28833
C         46.44578        69.19936        -0.90243
C         47.60524        71.23789        -0.09785
C         46.46265        72.10142        -0.60598
C         47.62913        74.04626         0.44215
C         46.40591        73.43510         0.09580
C         49.25087        38.86231         2.70512
C         50.48216        40.86244         1.88520
C         49.36246        40.25168         2.41680
C         50.52685        42.37093         1.74091
C         49.16798        42.91962         1.34149
C         50.26782        44.67572        -0.15176
C         49.08164        44.19157         0.57982
C         50.18803        45.83778        -0.94616
C         48.84929        46.32619        -1.42885
C         50.00397        48.45139        -1.91851
C         48.74470        47.66245        -2.19424
C         49.89447        49.74614        -1.47847
C         48.78939        50.62307        -1.77585
C         50.15220        52.72934        -2.31101
C         48.93028        52.02650        -2.02507
C         50.10218        54.15409        -2.68438
C         48.91743        54.89482        -2.77116
C         50.18115        57.07991        -3.22650
C         48.88076        56.30368        -3.27355
C         50.13863        58.53248        -2.91443
C         48.92082        59.20383        -2.71298
C         50.17284        61.35430        -2.38885
C         48.92143        60.64039        -2.50745
C         50.19974        62.82244        -2.30142
C         48.92235        63.52031        -2.19050
C         50.12332        65.67688        -1.39595
C         48.83406        64.96933        -1.86108
C         50.02444        66.90286        -0.55639
C         48.71809        67.53911        -0.35411
C         49.95619        69.62822         0.46737
C         48.68370        68.98720         0.11987
C         49.89733        71.05082         0.87957
C         48.73963        71.84295         0.40349
C         50.05433        73.91012         0.80136
C         48.81134        73.28778         0.54572
C         51.62464        42.84756         0.83526
C         52.68674        44.55841        -0.57266
C         51.52494        44.00178         0.04466
C         52.63561        45.79901        -1.22270
C         51.37276        46.44465        -1.40309
C         52.62298        48.52256        -2.14340
C         51.31631        47.73203        -2.18801
C         52.70322        49.88977        -2.37708
C         51.69284        50.79209        -1.94061
C         52.57196        52.69995        -3.19431
C         51.41326        52.05849        -2.45266
C         52.60040        54.15876        -2.83585
C         51.38626        54.83016        -2.82139
C         52.75619        56.99309        -2.80256
C         51.44697        56.29200        -3.02916
C         52.73654        58.49713        -2.77957
C         51.42701        59.27052        -2.83365
C         52.61798        61.37139        -2.00451
C         51.41599        60.69506        -2.39999
C         52.63827        62.71658        -1.56865
C         51.49837        63.57529        -1.88575
C         52.47010        65.44056        -0.57438
C         51.39227        64.92016        -1.29307
C         52.42080        66.80184        -0.06029
C         51.16330        67.51993        -0.05465
C         52.36539        69.52251         0.87425
C         51.12495        68.88223         0.47478
C         52.37596        70.86598         1.32877
C         51.17083        71.74938         1.33351
C         52.44243        74.01946         1.02071
C         51.25614        73.23893         1.09490
C         53.82945        46.42136        -1.73136
C         55.09008        48.40946        -2.44239
C         53.84603        47.73779        -2.19326
C         55.15053        49.76632        -2.75685
C         53.87444        50.47181        -3.15128
C         55.04675        52.63136        -2.66049
C         53.88495        51.96885        -2.96138
C         55.01840        54.04500        -2.35174
C         53.85181        54.80043        -2.49116
C         54.92247        56.84424        -1.53696
C         53.87321        56.21861        -2.20309
C         54.88817        58.29364        -1.42907
C         53.96235        59.14513        -2.22000
C         54.94094        61.19540        -1.01547
C         53.88902        60.62473        -1.87569
C         54.93500        62.56817        -0.64240
C         53.76007        63.32210        -0.89902
C         54.82588        65.21577         0.23166
C         53.69570        64.66943        -0.42783
C         54.73821        66.57382         0.77205
C         53.55708        67.39722         0.48379
C         54.83459        69.44633         1.08899
C         53.58227        68.78332         0.86897
C         54.83791        70.82652         1.41326
C         53.60179        71.39197         1.74797
C         55.00038        74.00565         1.23396
C         53.69586        73.60958         1.52205
C         56.34578        50.50622        -2.67541
C         57.51411        52.62760        -2.33530
C         56.32791        51.91394        -2.57360
C         57.51527        53.97983        -1.90673
C         56.18928        54.61293        -1.66446
C         57.46679        56.62569        -0.84020
C         56.12251        56.02677        -1.12260
C         57.53907        57.84411        -0.17176
C         55.72355        58.97399        -0.56622
C         57.28192        60.95084        -0.21079
C         55.96129        60.37302        -0.56457
C         57.27000        62.36200         0.22004
C         56.07888        63.12266         0.02143
C         57.26384        65.11810         0.85293
C         56.03940        64.49164         0.40883
C         57.30486        66.52748         1.03995
C         56.05283        67.27336         1.14244
C         57.31148        69.39591         1.16912
C         56.08561        68.73753         1.08474
C         57.35400        70.87260         1.10287
C         56.05416        71.65482         1.25013
C         57.39951        73.71462         1.57077
C         56.13854        73.14603         1.46758
C         58.70083        54.67563        -1.68896
C         59.91563        56.71522        -0.88037
C         58.71281        56.01480        -1.16947
C         59.91493        58.05639        -0.42019
C         58.66080        58.67033        -0.15188
C         59.74152        60.83750         0.50668
C         58.56275        60.15270        -0.06275
C         59.66385        62.16138         0.88402
C         58.45139        62.95110         0.72439
C         59.70843        65.03015         1.31697
C         58.46386        64.35935         0.98052
C         59.74180        66.48633         1.33933
C         58.52821        67.22546         1.19097
C         59.77966        69.35670         1.36870
C         58.54216        68.66091         1.26278
C         59.79173        70.80339         1.47466
C         58.63207        71.54398         1.40297
C         59.81180        73.61739         2.01768
C         58.63348        72.98153         1.63653
C         61.08875        58.82595        -0.10226
C         62.19874        60.82767         0.78659
C         61.01112        60.11286         0.44324
C         62.16941        62.13795         1.26032
C         60.83548        62.77797         1.60605
C         62.11393        64.93107         1.94108
C         60.86289        64.28208         1.53303
C         62.15397        66.43614         1.91152
C         60.94971        67.19526         1.51708
C         62.24180        69.32545         1.72452
C         60.99224        68.61483         1.46868
C         62.25840        70.68073         1.91126
C         61.10961        71.54270         1.47559
C         62.18761        73.51897         2.61568
C         61.06100        72.91753         2.11331
C         63.37125        62.83304         1.52400
C         64.61352        64.88646         2.08267
C         63.40698        64.20205         1.85505
C         64.70303        66.30939         2.12459
C         63.48786        67.06524         1.73787
C         64.77594        69.20327         2.12613
C         63.51982        68.56486         1.73566
C         64.78247        70.66526         2.20595
C         63.47098        71.33413         2.45612
C         64.74134        73.46624         3.05986
C         63.45258        72.78311         2.83046
C         65.88191        67.01286         2.35430
C         67.12989        69.14061         2.79738
C         65.93592        68.45559         2.37997
C         67.19046        70.52343         2.99461
C         66.03291        71.37293         2.63763
C         67.13704        73.33429         3.66486
C         65.93326        72.76715         3.14983
C         68.31326        71.18119         3.55679
C         68.27935        72.55436         3.84208
O         53.60740        72.57383         2.47250
O         37.38118        66.51122         1.11805
O         40.27788        56.81662        -4.43161
O         46.82686        52.41323        -0.89478
O         48.37798        67.87865         1.04036
O         46.77765        63.52324        -3.14905
O         65.65008        71.30509         1.20986
O         61.99992        65.73854         3.18711
O         38.50351        63.26798        -3.17571
O         45.56128        49.94336        -3.32349
O         43.35008        67.07019         1.18148
O         31.77813        72.46577         2.90300
O         35.02360        52.95868        -2.78512
O         42.40981        58.10192        -4.54560
O         42.65394        44.70398         4.35585
O         56.65111        71.38938        -0.08130
O         30.37448        70.71676         0.04536
O         49.50628        65.89065        -2.73855
O         55.15867        66.71190         2.17062
O         52.28815        59.06693        -4.02673
O         41.92402        62.35944         0.17498
O         63.63679        67.76880         0.47210
O         35.46555        69.83994         2.57917
O         58.20240        60.73831        -1.38035
O         45.19066        45.62507        -1.51299
O         52.40311        56.52775        -4.13734
O         49.64646        56.56039        -4.50085
O         48.45459        45.30156         1.38522
O         32.81283        54.24695        -2.72036
O         26.05840        69.64715         0.32105
O         45.27140        66.42274        -2.89129
O         32.89400        63.70833        -2.60400
O         35.58496        58.91796        -3.63100
O         37.82532        48.76310        -0.63661
O         44.05232        55.44417        -4.57768
O         47.92105        41.42534         4.10536
O         48.14051        45.25119        -2.15807
O         39.72811        52.97659        -3.63999
O         36.94349        72.47545         2.72387
O         45.84931        36.27789         2.85247
O         38.72811        47.73343         3.15894
O         42.43082        48.85945         2.26771
O         42.53821        51.49460         0.06228
O         34.90029        64.47601         0.48351
O         50.17529        71.31550         2.30896
O         36.92534        65.97450        -2.35809
O         35.60832        63.44959        -3.16917
O         50.97781        50.34432        -0.82435
O         63.27488        71.68475         3.87358
O         44.56227        59.29420        -4.32467
O         56.37126        58.28389         0.45469
O         51.08313        63.46681        -3.27801
O         41.79984        54.16602        -4.45086
O         55.85545        54.88827        -0.24353
O         40.00220        65.61036        -2.37422
O         46.32119        42.67987         0.09439
O         46.93327        55.00555        -1.23405
O         30.27829        61.26435        -2.51670
O         54.52374        60.12723        -3.12545
O         24.54182        72.42123         3.92191
O         50.82642        42.91597         3.07494
H         50.07328        42.68949         3.66337
O         28.05198        69.07472         3.32562
H         28.76169        69.56429         3.79198
O         60.60768        62.47681         3.03128
H         61.25429        63.00194         3.55074
O         51.31018        47.36054        -3.60897
H         50.36576        47.26170        -3.90060
O         42.92150        67.30392        -2.24204
H         43.30459        66.59989        -2.82499
O         40.84827        46.44603         4.52684
H         41.46834        45.89909         5.06660
O         61.39311        71.82860         0.05604
H         61.37485        70.97754        -0.43188
O         32.24687        58.40044        -3.65558
H         33.06877        58.08097        -4.08729
O         43.60986        51.58040        -4.01575
H         44.32172        50.94289        -4.25671
O         45.55478        65.96982         0.71936
H         44.76797        66.23789         1.26802
O         45.25207        70.24736        -2.68165
H         44.42543        70.71200        -2.93556
O         48.03675        65.10895         0.29836
H         47.44461        65.57326         0.93571
O         53.66191        50.20081        -4.56149
H         53.02971        50.88079        -4.90068
O         46.76452        72.41147        -2.00622
H         46.49721        71.62298        -2.54167
O         52.28780        52.61683        -4.63703
H         52.65530        53.41730        -5.07022
O         47.33870        39.22932         5.31107
H         47.84685        40.06873         5.42081
O         29.54927        64.27821         2.20338
H         29.55561        65.12255         2.70372
O         39.16078        50.05600        -2.35260
H         38.28722        50.08377        -2.79576
O         47.35584        57.34511        -4.83964
H         48.24247        57.42336        -5.26675
O         48.65235        47.33237        -3.61060
H         48.16051        46.47698        -3.66399
H         22.82121        74.95231         2.53409
H         25.55337        74.91527         1.88755
H         27.94564        74.95185         2.10029
H         30.23841        75.02721         1.32555
H         33.00568        74.87653         0.86952
H         35.32506        74.88792         1.09067
H         37.85074        74.95630         0.79421
H         40.29808        74.98841         0.77065
H         42.72372        75.03926         0.66735
H         45.14873        75.07543         0.70893
H         47.64159        75.10409         0.74619
H         50.08786        75.00877         0.73907
H         52.36725        74.99767         0.52060
H         55.18665        74.98123         0.75909
H         57.46600        74.80954         1.66329
H         59.77726        74.67573         2.31847
H         62.13600        74.56653         2.95250
H         64.72065        74.53609         3.31944
H         67.14022        74.38742         3.98063
H         22.06649        69.00028         2.20163
H         20.99082        71.13957         3.01185
H         20.95834        73.49975         3.01579
H         24.49551        64.83125         0.99756
H         23.29659        66.91243         1.53609
H         26.88518        60.59858         0.12848
H         25.70675        62.70181         0.64744
H         29.32709        56.51832        -0.71382
H         28.11330        58.53064        -0.44148
H         31.97118        52.45493         0.01569
H         30.65054        54.57481        -0.26192
H         34.67144        48.76892         1.49408
H         33.32911        50.57675         0.69485
H         37.48677        44.64138         2.68910
H         35.82813        46.73530         1.87625
H         39.92335        41.12373         4.48382
H         38.72053        43.07392         3.69314
H         42.32911        36.90802         5.42270
H         41.14789        39.03969         5.02417
H         45.68955        33.48214         5.74262
H         43.55361        34.71828         5.70321
H         47.79094        34.47984         4.92371
H         48.94350        36.28512         3.31287
H         50.09140        38.20547         2.43177
H         51.38658        40.27300         1.67206
H         52.61369        42.37801         0.95101
H         53.64995        44.03769        -0.46774
H         54.77678        45.86612        -1.65843
H         56.02567        47.86176        -2.24653
H         57.29666        49.97605        -2.50985
H         58.47556        52.09591        -2.40211
H         59.65946        54.17586        -1.89322
H         60.87635        56.21109        -1.06057
H         62.07919        58.36505        -0.23372
H         63.17241        60.34370         0.61307
H         64.32486        62.29778         1.39473
H         65.54458        64.30227         2.14194
H         66.80074        66.45582         2.59103
H         68.01247        68.53353         3.05026
H         69.21906        70.60127         3.78504
H         69.17723        73.02386         4.26889
