         321
 CSIRO Nanostructure Databank - Neutral Graphene Oxide Data Set
C         30.48187        57.10930         0.67911
C         30.49240        58.49745         0.85527
C         29.20011        59.22300         1.15382
C         30.46283        61.36400         0.84699
C         29.29163        60.70738         0.93820
C         32.92337        52.87125         0.25863
C         32.88616        54.27159         0.10527
C         31.67974        54.98077         0.28522
C         32.90325        57.11110         0.24104
C         31.66867        56.38978         0.38989
C         32.92391        58.50636         0.50232
C         31.70981        59.20601         0.79653
C         32.93602        61.32574         0.93389
C         31.74280        60.66021         0.88220
C         35.44315        48.70965         0.85568
C         35.39215        50.03849         0.51905
C         34.18913        50.79907         0.58138
C         35.37738        52.88035        -0.05428
C         34.14197        52.15949         0.22873
C         35.32839        54.30679        -0.24422
C         34.12135        54.99199        -0.14983
C         35.25656        57.20001        -0.45090
C         34.10109        56.44633        -0.14508
C         35.27997        58.57985        -0.12135
C         34.15804        59.20542         0.43955
C         35.46004        61.35192         0.79348
C         34.22499        60.56111         1.10730
C         38.00091        44.46734         1.31331
C         37.99682        45.84712         1.20369
C         36.74050        46.64143         1.46592
C         37.93907        48.73246         0.70989
C         36.67818        47.90252         0.57622
C         37.92130        50.06958         0.41050
C         36.62001        50.67160        -0.10048
C         37.82490        52.86197        -0.24872
C         36.58745        52.17704        -0.05798
C         37.79105        54.20537        -0.73903
C         36.61780        55.10521        -0.36353
C         37.70682        57.30946        -1.12567
C         36.42051        56.46779        -1.12340
C         37.71421        58.76961        -0.87628
C         36.46418        59.43142        -0.40581
C         37.81502        61.46132         0.11232
C         36.56596        60.78404         0.20025
C         40.48030        40.20205         1.22507
C         40.40274        41.59812         0.94269
C         39.23485        42.32383         1.21950
C         40.36745        44.42369         0.64307
C         39.19020        43.72785         1.06415
C         40.38197        45.85399         0.59701
C         39.20018        46.54475         0.89831
C         40.50368        48.76865         0.72126
C         39.19669        48.02197         0.98471
C         40.41417        50.18943         0.35665
C         39.15130        50.83491         0.28353
C         40.29778        53.00672        -0.20015
C         39.06609        52.19356        -0.13282
C         40.26764        54.28889        -0.93799
C         38.96416        54.67175        -1.33699
C         40.19236        57.43255        -1.60001
C         38.84980        56.83598        -1.67253
C         40.21799        58.81921        -1.07891
C         39.01966        59.45507        -0.74206
C         40.24820        61.51482        -0.25067
C         39.01667        60.82876        -0.30136
C         43.06162        36.10960         1.87526
C         42.89678        37.35899         1.26789
C         41.74229        38.12604         1.45698
C         42.79241        40.09284         0.34381
C         41.63968        39.46550         0.99376
C         42.74027        41.52217         0.04490
C         41.54912        42.27669         0.39889
C         42.63049        44.39591        -0.36374
C         41.50899        43.67031         0.25520
C         42.73495        45.84729        -0.13785
C         41.62758        46.56245         0.27803
C         42.81129        48.69782        -0.21727
C         41.69294        48.01068         0.30200
C         42.79460        50.13456        -0.31683
C         41.62583        50.85167         0.02371
C         42.90026        53.07623        -0.28413
C         41.62155        52.32418         0.00492
C         42.71090        54.46062        -0.90163
C         41.44439        55.06702        -1.14206
C         42.70499        57.29758        -1.16302
C         41.44631        56.54624        -1.46660
C         42.69527        58.74183        -1.01571
C         41.47339        59.46633        -0.89129
C         42.70269        61.53062        -0.36567
C         41.47375        60.85703        -0.51301
C         45.68578        33.49519         2.43025
C         44.44743        34.14568         2.42350
C         45.43549        36.02125         1.17565
C         44.29390        35.40387         1.80597
C         45.32414        37.28648         0.55070
C         43.94162        37.85058         0.29632
C         45.07331        39.91683        -0.62920
C         43.92603        39.34642         0.10110
C         45.02594        41.41184        -0.92958
C         43.84645        42.16642        -0.48907
C         45.13695        44.33081        -0.97167
C         43.84904        43.61444        -0.76567
C         45.17259        45.71819        -0.89822
C         44.08468        46.50940        -0.19879
C         45.15469        48.62482        -1.02284
C         44.01233        47.97132        -0.58484
C         45.17090        50.08316        -1.14832
C         43.95904        50.84643        -0.83320
C         45.09755        52.98845        -1.44420
C         43.93220        52.22600        -0.98300
C         45.16175        54.44516        -1.20295
C         43.91563        55.16987        -1.11271
C         45.19698        57.33354        -1.41147
C         43.90659        56.60129        -1.18348
C         45.17791        58.74359        -0.88059
C         43.92398        59.42992        -0.80117
C         45.15027        61.52061        -0.30634
C         43.92866        60.84152        -0.50100
C         46.80105        34.08551         1.84299
C         47.81886        35.96703         0.59146
C         46.69827        35.35304         1.21806
C         47.71474        37.21337         0.00421
C         46.46459        37.91140         0.00206
C         47.52745        39.90490        -1.03181
C         46.38995        39.24243        -0.56985
C         47.45925        41.31282        -1.50909
C         46.27547        42.13376        -1.21845
C         47.55635        44.22063        -1.52331
C         46.31372        43.53082        -1.27852
C         47.51441        45.67971        -1.71005
C         46.34068        46.45424        -1.29449
C         47.62620        48.55978        -1.47396
C         46.37242        47.86285        -1.30705
C         47.65110        50.05550        -1.71669
C         46.35378        50.74583        -1.39895
C         47.64187        52.93394        -1.21165
C         46.40744        52.20682        -1.55423
C         47.63300        54.31899        -1.14561
C         46.40404        55.09090        -1.20062
C         47.61428        57.21803        -0.86009
C         46.44504        56.54719        -1.09317
C         47.64505        58.69416        -0.76148
C         46.36259        59.41216        -0.62405
C         47.58399        61.48495         0.01476
C         46.38768        60.82813        -0.30614
C         48.89495        37.77029        -0.75348
C         49.99594        39.95543        -1.14774
C         48.81437        39.25757        -0.99380
C         50.04514        41.37010        -1.32553
C         48.80329        42.08122        -1.66184
C         50.03704        44.24742        -1.44524
C         48.77828        43.54902        -1.57686
C         50.08300        45.65470        -1.42894
C         48.86878        46.42808        -1.71329
C         50.12691        48.55678        -1.31486
C         48.82871        47.87341        -1.47923
C         50.10498        50.06264        -1.01526
C         48.83242        50.78176        -1.09008
C         50.04621        52.84104        -0.47504
C         48.83939        52.15962        -0.91416
C         50.09764        54.25340        -0.43090
C         48.92342        55.01882        -0.93661
C         50.00808        57.08493         0.09915
C         48.91109        56.50257        -0.77436
C         50.10122        58.58682         0.02997
C         48.89702        59.37768        -0.30824
C         50.12172        61.42958         0.33098
C         48.80130        60.70772         0.40814
C         51.21789        42.09138        -1.13497
C         52.45879        44.21596        -0.97454
C         51.24408        43.50906        -1.20394
C         52.49737        45.59528        -0.88916
C         51.28508        46.34402        -1.07847
C         52.42039        48.38612        -0.25995
C         51.28283        47.74760        -0.92869
C         52.36595        49.87388         0.07436
C         51.21870        50.68908        -0.32414
C         52.36918        52.76266         0.40331
C         51.21250        52.08858        -0.11065
C         52.40339        54.17359         0.42819
C         51.26749        54.91514        -0.01010
C         52.45045        57.08021         0.67902
C         51.37416        56.41998        -0.16521
C         52.41415        58.45438         0.80736
C         51.24541        59.23046         0.40901
C         52.57074        61.34102         0.57454
C         51.29401        60.70586         0.43461
C         53.83569        46.29237        -0.75107
C         54.86653        48.45294        -0.00713
C         53.74730        47.74057        -0.31171
C         54.83765        49.86695         0.34045
C         53.62921        50.55790         0.35718
C         54.85929        52.65925         1.16736
C         53.55734        51.95912         0.79468
C         54.76991        54.14849         1.20524
C         53.60819        54.87537         0.86157
C         54.80370        56.97592         1.42725
C         53.62305        56.30488         1.03104
C         54.81094        58.42400         1.68842
C         53.55452        59.20524         1.36539
C         54.98451        61.21628         1.06362
C         53.70155        60.63443         1.00381
C         56.06178        50.58268         0.50540
C         57.39797        52.59405         0.64324
C         56.13701        51.94424         0.82620
C         57.71009        53.83733         1.23728
C         55.87621        54.85569         1.68689
C         57.31597        56.87723         1.66518
C         56.02467        56.25726         1.58608
C         57.33744        58.33449         1.93424
C         56.10675        59.12735         1.69670
C         57.49983        61.14489         1.11659
C         56.15986        60.47812         1.36805
C         58.62828        54.82943         0.90404
C         59.74136        56.96446         1.27127
C         58.54476        56.19827         1.37421
C         59.83624        58.34528         1.51837
C         58.64649        59.07328         2.02497
C         59.94391        61.21991         1.64187
C         58.62194        60.61301         2.03417
C         60.99887        59.06199         1.21335
C         61.03738        60.48323         1.29889
O         44.71665        40.40047        -1.97134
O         36.80530        59.45699        -1.83937
O         53.87643        58.85636         2.75074
O         48.08040        41.53673        -2.80655
O         45.67541        52.65444        -2.74286
O         58.04910        58.55023         3.25023
O         48.16676        46.08001        -2.94948
O         42.84388        44.00827        -1.78360
O         40.98557        57.06557        -2.76878
O         56.87385        54.14800         2.33910
O         49.30813        55.92732        -2.06323
O         52.02227        48.84291         1.09596
O         40.01446        48.51043         2.09969
O         50.47633        49.52073        -2.40113
O         48.56594        59.36146        -1.72530
O         45.25259        57.57394        -2.93423
O         38.82015        55.61509        -2.35272
O         40.95726        52.99018         1.13711
O         54.01322        52.07484         2.20155
O         36.96323        55.51692         1.00231
H         37.01119        54.71121         1.55973
O         57.88076        60.87171        -0.24039
H         57.16148        61.17607        -0.83094
O         36.60885        47.48101        -0.83192
H         35.70132        47.14325        -0.98862
O         43.53877        37.29739        -1.00857
H         44.00004        37.81131        -1.70621
O         51.78992        56.68629        -1.52895
H         51.05671        56.38160        -2.12138
O         43.51677        53.34598         1.02299
H         42.77042        53.51771         1.64404
O         47.84886        50.20476        -3.15926
H         48.77285        49.90816        -3.34681
O         36.58244        50.31604        -1.52358
H         36.62327        49.32858        -1.56597
O         36.02761        56.19217        -2.47641
H         36.83258        55.92441        -2.97297
O         44.54982        46.52193         1.21605
H         43.93857        47.10658         1.71532
O         54.51819        46.21777        -2.02112
H         53.94190        46.61975        -2.70351
O         48.97984        37.09655        -2.02917
H         48.20516        37.36458        -2.56547
O         35.57432        45.84041         1.24808
H         35.67023        45.39684         0.38030
O         58.32182        61.07247         3.36717
H         58.03370        60.27902         3.88179
O         34.32283        60.27404         2.56037
H         33.50099        59.80273         2.81603
O         28.11753        58.66616         0.39569
H         28.30910        58.80326        -0.55444
O         48.60226        60.34542         1.83272
H         48.63177        61.17431         2.35591
O         45.20126        56.29115        -3.58268
H         46.14590        56.11091        -3.81230
O         49.59198        56.75731         1.45573
H         50.16464        57.25061         2.08131
H         29.52722        56.56796         0.75290
H         28.93866        59.04827         2.23799
H         30.48251        62.45874         0.73581
H         28.34221        61.26232         0.90257
H         31.99179        52.33100         0.48438
H         30.74559        54.42051         0.44079
H         32.95345        62.42460         0.99217
H         34.54954        48.18542         1.22833
H         33.26499        50.30048         0.91152
H         35.53284        62.36533         1.21812
H         37.08264        43.93755         1.60545
H         36.71960        46.96641         2.53912
H         37.87384        62.49643         0.48198
H         39.61360        39.70873         1.68997
H         38.34259        41.79409         1.58449
H         40.26477        62.57229         0.05188
H         42.24267        35.69257         2.48153
H         40.91598        37.71375         2.05658
H         42.70872        62.59786        -0.10012
H         45.77901        32.51148         2.91136
H         43.57865        33.67548         2.90625
H         45.13517        62.59767        -0.08355
H         47.77218        33.57048         1.85661
H         48.78031        35.43291         0.56909
H         47.55127        62.56227         0.24298
H         49.84345        37.52663        -0.20991
H         50.94841        39.41579        -1.03314
H         50.14702        62.52981         0.36003
H         52.14761        41.55479        -0.89356
H         53.38676        43.63902        -0.84630
H         52.64834        62.42388         0.39412
H         54.47589        45.72756        -0.02440
H         55.84924        47.95979        -0.05511
H         55.09263        62.27634         0.78599
H         57.00049        50.04111         0.31458
H         58.15404        52.08450         0.02655
H         57.40391        62.25666         1.26320
H         59.45450        54.58650         0.21938
H         60.64530        56.44832         0.91268
H         60.00942        62.31750         1.67414
H         61.88676        58.51971         0.85761
H         61.97733        60.99365         1.04243
