         344
 CSIRO Nanostructure Databank - Neutral Graphene Oxide Data Set
C          1.40349         1.93506         0.93767
C          1.35108         3.33114         0.93802
C          2.61607         1.27524         1.09115
C          2.52078         4.10797         1.12000
C          1.28378         6.28063         1.04334
C          1.26749         7.72243         0.97852
C          2.45275         5.57096         1.11086
C          2.40031         8.44447         0.71087
C          1.27476        10.68103         0.60671
C          1.32749        12.08858         0.42164
C          2.41814         9.88743         0.48844
C          2.42670        12.71920        -0.11472
C          1.28110        14.95388        -0.50054
C          1.26829        16.28014        -0.69566
C          2.54023        14.23363        -0.03830
C          2.54866        17.06092        -0.52417
C          2.54369        18.46298        -1.09003
C          3.81743         2.01695         1.24570
C          3.75662         3.44114         1.26894
C          5.06634         1.33885         1.33494
C          5.02035         4.20500         1.57725
C          3.71983         6.39178         1.29409
C          3.66127         7.64975         0.42673
C          4.99897         5.62268         1.07570
C          4.93654         8.45018         0.51511
C          3.65138        10.52287         0.12278
C          3.61488        11.90209        -0.39541
C          4.89529         9.85443         0.20934
C          4.93455        12.59096        -0.76713
C          3.73829        14.82806        -0.72843
C          3.68209        16.25902        -1.17394
C          4.95829        14.07153        -1.16175
C          4.99322        16.99088        -1.02636
C          3.71089        19.07855        -1.36418
C          4.99637        18.39604        -1.17976
C          6.29880         2.03742         1.25992
C          6.28436         3.46894         1.21887
C          7.53255         1.35021         1.15694
C          7.47039         4.17893         0.98312
C          6.16806         6.30566         0.82524
C          6.14870         7.75469         0.62669
C          7.44669         5.61550         0.82603
C          7.38563         8.45914         0.57349
C          6.11663        10.60126         0.12646
C          6.15788        11.94823        -0.25502
C          7.34029         9.95708         0.72211
C          7.35750        12.72812        -0.12162
C          6.17594        14.83720        -0.68675
C          6.18510        16.26868        -0.79724
C          7.35780        14.14866        -0.32485
C          7.40816        16.99720        -0.66942
C          6.20280        19.10110        -1.10426
C          7.42569        18.42039        -0.84931
C          8.74810         2.04800         0.98809
C          8.71757         3.47941         0.87579
C          9.99767         1.37016         0.91341
C          9.92606         4.19911         0.68544
C          8.63848         6.32753         0.65111
C          8.60991         7.77210         0.55497
C          9.90312         5.63472         0.59870
C          9.84387         8.49209         0.43518
C          8.61249        10.64322         0.33957
C          8.59604        12.05151         0.14708
C          9.82514         9.92436         0.33850
C          9.81754        12.77181         0.17259
C          8.59206        14.88565        -0.20877
C          8.62135        16.29946        -0.40198
C          9.81845        14.20482         0.04762
C          9.85233        17.01565        -0.33481
C          8.65560        19.11692        -0.77116
C          9.87485        18.44228        -0.52560
C         11.19669         2.06719         0.71515
C         11.16206         3.50074         0.59039
C         12.46504         1.39808         0.65755
C         12.36846         4.21945         0.35501
C         11.10503         6.34846         0.44327
C         11.08448         7.79552         0.37349
C         12.34999         5.64565         0.28861
C         12.28686         8.51226         0.22620
C         11.05567        10.63485         0.21917
C         11.05660        12.06264         0.24547
C         12.27826         9.92453         0.14716
C         12.28193        12.75690         0.33448
C         11.03248        14.92098         0.13979
C         11.06761        16.32279        -0.06326
C         12.26266        14.22089         0.65127
C         12.31210        17.03686        -0.02348
C         11.11242        19.13206        -0.46032
C         12.33201        18.45226        -0.22579
C         13.64312         2.08699         0.40295
C         13.60057         3.52044         0.19156
C         14.93393         1.44409         0.40577
C         14.76371         4.22658        -0.16746
C         13.55830         6.34033         0.03011
C         13.63266         7.83071         0.24274
C         14.73282         5.62992        -0.26933
C         14.57988         8.55559        -0.73881
C         13.51260        10.65467         0.04457
C         13.50825        12.06612         0.23604
C         14.71668         9.98731        -0.27110
C         14.76088        12.75635         0.32656
C         13.55347        14.92203         0.32664
C         13.54888        16.32948         0.15487
C         14.76596        14.21327         0.39510
C         14.78544        17.03327         0.16576
C         13.58163        19.14263        -0.18732
C         14.79862        18.47537         0.02415
C         16.09132         2.10670         0.05108
C         16.01794         3.48757        -0.56429
C         17.35637         1.44567        -0.00345
C         17.28316         4.31510        -0.37822
C         15.96427         6.34645        -0.70980
C         15.91330         7.82582        -0.88786
C         17.27681         5.65875        -0.54367
C         17.19119         8.58102        -0.87080
C         15.93221        10.67600        -0.23409
C         15.94967        12.04395         0.18256
C         17.16997        10.03235        -0.68009
C         17.29682        12.64097         0.53874
C         15.99842        14.91364         0.44752
C         15.98758        16.31828         0.40443
C         17.24472        14.15762         0.90573
C         17.20307        17.10135         0.72009
C         16.04027        19.17999         0.07970
C         17.25679        18.54200         0.38656
C         18.52361         2.10667        -0.36268
C         18.61806         3.61973        -0.20769
C         19.68506         1.37816        -0.74496
C         19.63454         4.26916        -1.13253
C         18.57106         6.47511        -0.54905
C         18.37180         7.90515        -1.03288
C         19.74556         5.73007        -1.21750
C         19.56066         8.65371        -1.50092
C         18.31321        10.77157        -0.82437
C         18.31652        12.22723        -0.51675
C         19.53030        10.19480        -1.50832
C         19.57750        13.01332        -0.66822
C         18.51541        14.90818         0.57459
C         18.52537        16.34852         0.86726
C         19.65887        14.33050         0.02691
C         19.75079        17.11639         0.68420
C         18.49620        19.21045         0.44985
C         19.73582        18.51494         0.60596
C         20.69251         2.03518        -1.45768
C         20.42290         3.40617        -1.84045
C         21.99010         1.48966        -1.68145
C         22.25158         4.46068        -2.43545
C         20.88790         6.42697        -1.57105
C         20.85658         7.92935        -1.65279
C         22.14396         5.95067        -2.36662
C         22.12883         8.72026        -1.53689
C         20.80384        10.78676        -0.85505
C         20.87352        12.32404        -1.13174
C         22.08923        10.06338        -1.24384
C         22.09827        12.95940        -0.51755
C         20.90182        15.01920         0.03358
C         21.01245        16.32521         0.77871
C         22.10720        14.31895        -0.25744
C         22.25266        17.11568         0.47449
C         21.00140        19.22305         0.62923
C         22.22289        18.56079         0.61189
C         23.18396         2.22766        -1.82199
C         23.27395         3.68116        -1.98697
C         24.38849         1.53199        -1.50971
C         24.63388         4.35234        -1.98560
C         23.42195         6.58289        -1.85685
C         23.40975         8.01623        -1.62753
C         24.58799         5.83339        -1.68092
C         24.61300         8.67797        -1.42711
C         23.34317        10.85561        -1.14430
C         23.31005        12.10252        -0.27704
C         24.66976        10.13308        -1.24943
C         24.61622        12.86269        -0.20774
C         23.41145        15.06489        -0.36693
C         23.42501        16.44925         0.23352
C         24.60923        14.22119        -0.01267
C         24.69474        17.13949         0.31671
C         23.48874        19.25445         0.63424
C         24.68778        18.57991         0.52999
C         25.56862         2.18503        -1.12187
C         25.68288         3.61178        -1.20650
C         26.65062         1.44232        -0.54833
C         26.83560         4.27143        -0.79312
C         25.82797         6.46630        -1.36209
C         25.90328         7.94055        -1.69661
C         26.96858         5.71465        -0.95737
C         27.16758         8.63469        -1.17575
C         25.90103        10.74819        -0.67373
C         25.85848        12.10376        -0.19928
C         27.10188        10.03475        -0.66691
C         27.06086        12.74667         0.14363
C         25.80754        14.94101         0.43924
C         25.86934        16.41713         0.35641
C         27.07796        14.14356         0.61144
C         27.21771        17.10178         0.30848
C         25.96745        19.22032         0.79254
C         27.14218        18.53908         0.78214
C         27.79596         2.07438        -0.11549
C         27.93688         3.50972        -0.25669
C         28.86042         1.32749         0.53727
C         29.11402         4.14439         0.12750
C         28.19542         6.33305        -0.59215
C         28.35416         7.79734        -0.76784
C         29.24119         5.57879         0.04263
C         29.55313         8.47207        -0.16214
C         28.30071        10.64573        -0.16363
C         28.28964        12.04013         0.12295
C         29.49416         9.91644         0.10939
C         29.51044        12.71728         0.42616
C         28.36506        14.86700         0.65900
C         28.32710        16.32436         1.06811
C         29.52633        14.17215         0.51049
C         29.65335        17.02569         0.88592
C         28.39688        19.16923         1.35455
C         29.66531        18.43034         0.99616
C         30.02686         1.91010         0.86822
C         30.33534         3.33090         0.49105
C         31.18212         4.03904         1.51128
C         30.35251         6.18932         0.68807
C         30.60899         7.63972         0.54605
C         31.21572         5.39817         1.52050
C         31.53285         8.37852         1.42094
C         30.60860        10.55084         0.70719
C         30.65890        11.98327         0.76693
C         31.60212         9.73391         1.37458
C         31.82175        12.72105         1.25647
C         30.87268        14.83900         0.36506
C         30.84737        16.33057         0.62103
C         31.91088        14.06457         1.15014
C         32.04177        17.05200         0.47042
C         30.86957        19.13042         0.85264
C         32.05529        18.44114         0.59241
O         30.76825         8.05154        -0.86533
O          4.18130        11.87031        -1.79253
O         24.11129        10.94409        -2.36434
O         15.85285         6.92556        -2.07260
O         21.10334         3.86971        -2.97324
O         26.22263        14.42333         1.79256
O         18.51572        13.06529        -1.69392
O         28.24135         8.35331        -2.13807
O         17.73598        16.78373         2.04964
O         20.01754         8.22357        -2.85107
O         31.25599        14.69446        -1.04078
H         31.25147        13.73669        -1.25208
O          3.38187        16.23415        -2.60651
H          4.01464        15.57797        -3.00205
O          2.69604        14.49708         1.40143
H          2.81698        15.47939         1.49095
O         12.15514        14.29478         2.13249
H         12.15499        15.24600         2.37349
O          7.21217        10.18181         2.19122
H          8.01493         9.80590         2.61200
O         13.93381         8.60457        -2.02632
H         14.35201         7.90779        -2.58565
O         18.96248         6.63789         0.84886
H         19.12660         5.72742         1.20510
O         17.74752        11.91157         1.70555
H         17.44472        12.41801         2.49552
O          3.57100         7.19526        -0.95891
H          3.53104         7.98916        -1.53271
O         14.21812         8.01891         1.56779
H         13.60387         7.63743         2.22930
O         19.42085        10.61643        -2.88503
H         19.77475         9.87338        -3.43692
O         19.06221         3.85300         1.17504
H         18.44606         3.37488         1.77005
O          5.03755         4.33615         3.07142
H          5.94247         4.62486         3.32038
O         28.25658        19.15443         2.79182
H         28.18880        18.20356         3.05338
O         21.16551        15.93940         2.20929
H         21.05031        16.75464         2.74342
O         21.06075        12.57663        -2.53817
H         20.26269        12.20817        -2.99777
O          5.02812        14.10890        -2.64479
H          4.57770        13.28557        -2.95350
O         15.92709         3.25762        -2.00904
H         15.81899         4.13246        -2.44076
O         28.00123        16.35936         2.48599
H         27.24620        15.72955         2.61791
O         23.14075        11.56257         1.09860
H         23.19247        12.31824         1.72418
O         21.94437         6.45445        -3.70902
H         21.14475         6.01771        -4.07197
O          3.75189         6.80675         2.68852
H          3.96331         5.99784         3.21434
O         23.55273        15.32977        -1.81151
H         23.27110        14.52248        -2.29607
O         25.08788         4.27148        -3.38362
H         25.16519         3.32094        -3.61202
O         17.10897        14.20222         2.36403
H         17.23939        15.14989         2.62876
O          2.84932        17.17206         0.90309
H          2.18158        17.76480         1.30702
O         31.15802         3.25368        -0.73261
H         31.34483         4.17635        -1.01067
O         25.98479         7.96891        -3.15901
H         26.93747         7.84693        -3.38583
O         20.62192        10.59484         0.56426
H         21.46063        10.86232         1.01998
O         27.63521        17.10249        -1.08884
H         26.95259        17.57486        -1.61040
H          0.47716         1.35788         0.80821
H          0.37917         3.82432         0.80308
H          2.65866         0.17678         1.08001
H          0.30977         5.76982         1.03278
H          0.29542         8.22425         1.09528
H          0.32310        10.23276         0.92260
H          0.44779        12.68203         0.71043
H          0.36003        14.36583        -0.63498
H          0.34705        16.79760        -1.00744
H          1.58545        18.99283        -1.20774
H          5.07426         0.23877         1.34331
H          3.72484        20.12331        -1.71067
H          7.54115         0.25100         1.20208
H          6.20716        20.19609        -1.20948
H         10.01647         0.27426         1.00992
H          8.66395        20.20761        -0.91624
H         12.49423         0.30893         0.81211
H         11.12540        20.22195        -0.61030
H         14.99290         0.39425         0.73294
H         13.58596        20.23444        -0.32572
H         17.37599         0.34783         0.09153
H         16.03506        20.26842        -0.08320
H         19.75071         0.29883        -0.54122
H         18.51908        20.29952         0.29738
H         22.11325         0.42302        -1.42996
H         20.98357        20.32329         0.63903
H         24.33825         0.43906        -1.38689
H         23.48887        20.34293         0.79855
H         26.54824         0.35246        -0.43775
H         25.95412        20.27166         1.12160
H         28.67594         0.26758         0.76970
H         28.47128        20.24271         1.04396
H         30.82275         1.32989         1.35888
H         31.87306         3.45649         2.13741
H         31.92772         5.91188         2.18202
H         32.22187         7.82792         2.07608
H         32.36351        10.23958         1.98462
H         32.63864        12.16297         1.73634
H         32.80430        14.58927         1.52064
H         32.97152        16.51438         0.23676
H         30.87567        20.22643         0.94323
H         32.99769        18.99374         0.47277
