         344
 CSIRO Nanostructure Databank - Neutral Graphene Oxide Data Set
C          1.20769         3.53881         0.84118
C          0.00500         4.20219         0.63986
C          1.17083         6.32595         0.32343
C         -0.01730         5.58048         0.38878
C          1.17626         7.76521         0.08312
C         -0.03114         8.49971         0.00762
C          1.15864        10.59961        -0.33252
C         -0.03455         9.87865        -0.17828
C          1.16110        12.04558        -0.51043
C         -0.04723        12.82482        -0.29300
C          1.03901        14.90679        -1.05715
C         -0.10369        14.16227        -0.50262
C          1.11035        16.38912        -0.97615
C         -0.11281        17.15104        -0.88354
C          1.09928        19.27451        -1.12329
C         -0.13487        18.50954        -0.91489
C          1.12686        20.73903        -0.85963
C          0.10963        21.53714        -1.28062
C          1.34325        23.59478        -0.76351
C          0.18952        22.96456        -1.17740
C          1.51311        25.09581        -0.95435
C          0.24325        25.90944        -0.90309
C          1.36031        27.85931         0.07220
C          0.21479        27.20816        -0.51085
C          1.43636        29.23088         0.31412
C          3.67616         3.59538         1.01129
C          2.42746         4.25082         0.78275
C          3.65298         6.36022         0.41946
C          2.41443         5.65111         0.51138
C          3.65578         7.75182         0.06677
C          2.40375         8.45314        -0.06850
C          3.60741        10.53723        -0.60580
C          2.40966         9.87809        -0.32909
C          3.60704        11.95537        -1.09605
C          2.34048        12.70237        -0.80170
C          3.61954        14.88594        -1.03147
C          2.34935        14.13766        -1.13539
C          3.60244        16.29792        -0.98141
C          2.34351        17.02487        -0.99300
C          3.62414        19.20297        -0.62695
C          2.39575        18.50096        -1.08248
C          3.59629        20.54448        -0.30342
C          2.30640        21.32759        -0.12969
C          3.69253        23.43874         0.00551
C          2.48586        22.81948        -0.34845
C          3.72882        24.88226         0.20063
C          2.58936        25.63665        -0.04678
C          3.78985        27.68638         0.91651
C          2.47817        26.99545         0.46243
C          3.83644        29.16192         0.89977
C          2.62840        29.86490         0.71670
C          6.14081         3.55200         1.32311
C          4.86859         4.28319         0.96467
C          6.11596         6.39645         0.53893
C          4.88050         5.68207         0.64131
C          6.10668         7.77412         0.18574
C          4.87969         8.42425        -0.09820
C          6.02339        10.64989         0.01820
C          4.91997         9.81608        -0.67964
C          6.05305        12.08093        -0.47584
C          4.86386        12.73887        -0.75314
C          6.06813        14.89171        -0.87165
C          4.84050        14.16993        -0.89906
C          6.07051        16.31648        -0.92712
C          4.83494        17.01808        -0.89746
C          6.07709        19.07414        -0.41071
C          4.85130        18.43908        -0.63970
C          6.10792        20.41188         0.17178
C          4.79607        21.19293         0.24221
C          6.09639        23.28778         0.61118
C          4.88636        22.67579         0.30766
C          6.18085        24.72667         0.72517
C          4.97039        25.52166         0.59634
C          6.27618        27.63456         0.80219
C          5.00851        26.90808         0.75112
C          6.29308        29.08011         1.15099
C          5.07670        29.80341         1.08989
C          8.62295         3.66237         1.13383
C          7.40815         4.31789         1.02957
C          8.58528         6.42861         0.57360
C          7.36538         5.71138         0.71952
C          8.56389         7.83647         0.34724
C          7.35287         8.51431         0.15352
C          8.55459        10.64786        -0.20008
C          7.35090         9.93876        -0.03701
C          8.53850        12.07467        -0.48924
C          7.30445        12.78235        -0.55343
C          8.53366        14.89023        -0.96900
C          7.30400        14.18782        -0.78950
C          8.54057        16.32750        -1.10322
C          7.32075        17.02337        -0.98535
C          8.50496        19.19583        -0.77320
C          7.31919        18.45379        -0.76035
C          8.54032        20.53139        -0.21037
C          7.37571        21.13658         0.24092
C          8.63668        23.23553         0.86147
C          7.34041        22.46601         0.96777
C          8.64204        24.60020         1.13261
C          7.39882        25.33684         1.05050
C          8.66351        27.44577         1.76196
C          7.51165        26.80775         1.02034
C          8.74511        28.94614         1.55742
C          7.52697        29.68898         1.38357
C         11.10857         3.68187         1.07494
C          9.85757         4.34896         0.94521
C         11.07157         6.44415         0.45026
C          9.83534         5.74173         0.67707
C         11.08157         7.84076         0.23658
C          9.83437         8.61948         0.55270
C         11.03470        10.63038        -0.32142
C          9.80814         9.98545        -0.06524
C         11.05946        12.02501        -0.90297
C          9.74227        12.75790        -0.76848
C         10.97223        14.78432        -1.54081
C          9.72994        14.13863        -1.01331
C         10.92854        16.29084        -1.55742
C          9.78400        17.04709        -1.34507
C         10.97313        19.32909        -1.14369
C          9.69192        18.59899        -1.51273
C         11.01255        20.59133        -0.40320
C          9.81595        21.22110        -0.01109
C         11.10820        23.19275         0.67861
C          9.86084        22.53761         0.53403
C         11.20425        24.56230         1.30952
C          9.89460        25.33330         1.26702
C         11.19604        27.40357         1.57636
C          9.93238        26.69321         1.45923
C         11.20437        28.82408         2.10438
C          9.94203        29.57404         1.77247
C         13.57445         3.72886         1.17018
C         12.31095         4.35757         0.88790
C         13.51412         6.43853         0.20870
C         12.30619         5.74614         0.50182
C         13.50462         7.77408        -0.19513
C         12.28463         8.51472        -0.06879
C         13.54797        10.63619        -0.55678
C         12.25547         9.94593        -0.22214
C         13.54679        12.14284        -0.38686
C         12.21415        12.86132        -0.31088
C         13.44471        14.92117        -1.07186
C         12.25983        14.23061        -0.94778
C         13.43202        16.27005        -1.63138
C         12.21775        16.79631        -1.98215
C         13.44662        19.20302        -0.93732
C         12.15915        18.89191        -1.63915
C         13.47795        20.72344        -0.96464
C         12.25230        21.27497        -0.26560
C         13.63557        23.18847         0.69138
C         12.30706        22.55281         0.31069
C         13.64164        24.70091         0.61421
C         12.31159        25.40623         0.63475
C         13.66586        27.44539         1.66056
C         12.36766        26.78270         1.27454
C         13.61736        28.94567         1.39929
C         12.39880        29.58730         1.60075
C         15.98912         3.84493         1.52064
C         14.75586         4.42168         1.08497
C         15.76833         6.73814         1.26087
C         14.85202         5.78420         0.42661
C         15.81595         8.13717         0.60440
C         14.84437         8.43539        -0.55971
C         16.03623        10.70315        -0.34103
C         14.80101         9.89502        -0.07237
C         16.00736        12.13150        -0.56038
C         14.72246        12.84674        -0.52676
C         15.91352        14.98861        -0.98787
C         14.72028        14.28120        -0.79321
C         15.94139        16.34452        -1.41894
C         14.70416        17.05406        -1.92121
C         15.89575        19.19715        -1.34081
C         14.70009        18.51652        -1.43605
C         15.95860        20.60281        -0.92344
C         14.79376        21.29597        -0.55083
C         16.06591        23.26430         0.05573
C         14.84549        22.58647         0.00870
C         16.13580        24.59010         0.77661
C         14.82616        25.37240         0.70557
C         16.03813        27.49439         0.94960
C         14.87671        26.78978         1.04061
C         16.10479        28.90478         1.49509
C         14.81942        29.62760         1.18324
C         18.40856         3.92919         1.84055
C         17.13961         4.60333         1.61710
C         18.31634         6.72638         1.32124
C         17.12793         6.03714         1.39187
C         18.34519         8.09369         0.85580
C         17.19633         8.71210         0.42368
C         18.50409        10.72472        -0.28252
C         17.24144        10.06028        -0.09252
C         18.47310        12.10699        -0.78859
C         17.18976        12.83297        -0.71839
C         18.45406        15.02261        -1.01473
C         17.20077        14.33903        -0.52864
C         18.42037        16.35915        -1.36482
C         17.15162        17.05980        -1.47877
C         18.37793        19.19895        -1.51455
C         17.15754        18.49346        -1.52642
C         18.41220        20.61737        -1.25847
C         17.20241        21.28781        -0.87463
C         18.47736        23.38129        -0.51043
C         17.24241        22.64894        -0.44766
C         18.47844        24.79558        -0.20145
C         17.31585        25.40307         0.30239
C         18.47925        27.67992         0.13317
C         17.21281        26.85782         0.31662
C         18.49300        29.06820         0.66279
C         17.35937        29.65890         1.14765
C         19.58257         4.58469         1.78725
C         20.71824         6.54555         0.70300
C         19.64867         6.07971         1.66537
C         20.73312         7.81647         0.28535
C         19.69591         8.79135         0.81324
C         20.91353        10.86685         0.11996
C         19.69210        10.11802         0.08704
C         20.95794        12.19116        -0.20536
C         19.79785        12.87830        -0.77117
C         20.92465        15.02531        -1.41148
C         19.78229        14.39271        -0.66579
C         20.85690        16.31484        -1.81211
C         19.64286        17.08578        -1.65094
C         20.82220        19.26530        -1.84282
C         19.62130        18.49107        -1.70871
C         20.82279        20.62177        -1.66080
C         19.62915        21.33032        -1.30077
C         20.83857        23.51819        -1.10481
C         19.65257        22.74079        -0.97276
C         20.85486        24.86759        -0.81544
C         19.69634        25.55327        -0.37284
C         20.93396        27.67624         0.09478
C         19.75212        26.95424        -0.03665
C         20.92811        29.06443         0.40571
C         19.76504        29.74594         0.67408
O         12.19148        18.00031        -2.71815
O          7.22089        27.34961        -0.30566
O         13.81562        23.01906         2.11361
O         19.26672        12.35452        -2.01555
O         17.56129        27.48089        -0.98971
O          1.54689        14.41327        -2.34892
O          2.84698        27.13122         1.87793
O          5.31628        20.50696         1.44026
O         15.03464         9.27220         1.33287
O          1.84183        18.97608        -2.36710
O         16.30346        24.24763         2.18576
H         15.45947        23.75422         2.42253
O         11.02306        14.41814        -2.97716
H         10.25957        14.85395        -3.41257
O         17.21415        14.52126         0.94026
H         18.15109        14.40227         1.23680
O          5.29366         9.68538        -2.08204
H          4.81349        10.38125        -2.59178
O          9.42302        18.81439        -2.93013
H         10.26000        18.61206        -3.40612
O         13.27326        18.75532         0.43765
H         13.97383        19.17085         0.98456
O         13.80722        27.30969         3.11326
H         12.99632        27.71505         3.51727
O          5.63432        10.70704         1.42413
H          6.37643        11.10211         1.92870
O         13.68193        10.44847        -2.02443
H         12.93704        10.96577        -2.43369
O         20.06461         9.13979         2.17847
H         20.15492         8.29112         2.68487
O         15.22288         6.86903         2.58508
H         14.90886         7.79557         2.68704
O         19.99062        14.66639         0.77507
H         20.12966        15.63327         0.87164
O          2.01501        25.25881        -2.33119
H          2.83547        24.72662        -2.40859
O         11.55172        24.37046         2.69546
H         12.39882        23.82360         2.70364
O          6.17423         2.25869         0.70114
H          6.18554         2.38788        -0.26919
O         11.87575        13.03587         1.09929
H         12.61293        13.51725         1.53080
O          3.65103        11.86019        -2.58780
H          3.24805        12.68085        -2.95096
O          9.89214         8.85862         2.02241
H          9.99916         7.98154         2.45009
O          1.98767        21.16355         1.30197
H          2.74692        21.51467         1.81607
O         16.13883        28.81342         2.96363
H         15.36985        28.24251         3.23799
O         14.84358        17.13591        -3.37498
H         14.04563        17.60561        -3.70675
O         11.90379        25.58004        -0.75646
H         12.53876        26.19069        -1.18577
O         11.35457        11.86492        -2.32500
H         10.52669        11.62737        -2.79170
O          8.42345        27.26224         3.19586
H          7.62077        27.77095         3.43793
O         15.53700         5.60762        -0.83576
H         14.91453         5.20567        -1.47543
O          7.21282        22.16341         2.39739
H          6.46292        21.52289         2.47935
O         11.32557        28.71331         3.57559
H         10.57663        28.14576         3.87040
O         13.32310        21.08540        -2.37762
H         13.30210        22.06386        -2.43721
O         15.26866         8.18120        -1.88274
H         14.80929         8.83396        -2.45885
O         20.03040         6.55832         3.00858
H         19.30780         6.30553         3.62208
H          1.22127         2.45892         1.04611
H         -0.94217         3.64648         0.68148
H         -0.98963         6.06779         0.23708
H         -0.99552         7.98717         0.11896
H         -1.00160        10.39760        -0.21544
H         -0.93131        12.32074         0.12093
H         -1.01066        14.71138        -0.21240
H         -1.06015        16.60832        -0.75904
H         -1.07499        19.05262        -0.74064
H         -0.77366        21.09737        -1.76643
H         -0.67152        23.54870        -1.52738
H         -0.66702        25.47577        -1.34095
H         -0.71265        27.79179        -0.61858
H          0.55962        29.85685         0.09083
H          3.68138         2.52038         1.24410
H          2.64258        30.96216         0.79120
H          6.11631         3.35633         2.43324
H          5.10244        30.89888         1.19443
H          8.63565         2.58733         1.36542
H          7.57043        30.78451         1.48692
H         11.12074         2.61758         1.35244
H          9.99123        30.67420         1.73388
H         13.56986         2.70852         1.58406
H         12.33412        30.68329         1.51469
H         16.02306         2.77030         1.75842
H         14.81660        30.72099         1.05034
H         18.38624         2.83786         1.98416
H         17.42298        30.69406         1.51966
H         20.53193         4.04631         1.92773
H         21.47404         5.82164         0.36154
H         21.51026         8.17446        -0.40743
H         21.79960        10.38666         0.55928
H         21.84473        12.79002         0.04881
H         21.84753        14.44471        -1.55372
H         21.73026        16.78176        -2.28988
H         21.77102        18.75724        -2.06264
H         21.77419        21.16296        -1.74918
H         21.76450        23.05156        -1.46573
H         21.79167        25.42395        -0.95575
H         21.90573        27.18236        -0.04365
H         21.89132        29.59005         0.46592
H         19.79663        30.80313         0.97482
