         228
 CSIRO Nanostructure Databank - Neutral Graphene Oxide Data Set
C        -10.90592         0.66026         0.93737
C         -9.69228         1.38851         0.63208
C         -8.61229         0.68456         0.10158
C         -7.28556         1.31203         0.08193
C         -6.12228         0.66295        -0.56348
C         -4.93481         1.37934        -0.77576
C         -3.63694         0.63821        -1.11954
C         -2.40192         1.38306        -0.61652
C         -1.23698         0.74132        -0.27252
C          0.02379         1.44722        -0.01204
C          1.21004         0.77366         0.08986
C          2.44814         1.47724         0.51641
C          3.75399         0.80467         0.33322
C          4.93416         1.51687         0.41379
C          6.20303         0.76137         0.60806
C          7.50966         1.46704         0.44323
C          8.78029         0.79289         0.98287
C         10.00672         1.55674         0.52101
C         11.21952         0.82085         0.27043
C         -9.61911         2.82270         0.81795
C         -8.44851         3.53999         0.64008
C         -7.19839         2.77150         0.45308
C         -5.93560         3.49617         0.11007
C         -4.91024         2.79445        -0.66040
C         -3.70873         3.56285        -1.02977
C         -2.39251         2.83983        -0.82392
C         -1.28133         3.62947        -0.22301
C         -0.03771         2.91696         0.20470
C          1.20117         3.72171         0.39253
C          2.43320         2.95945         0.73754
C          3.74019         3.73037         0.90384
C          4.98782         2.95989         0.51903
C          6.17925         3.66195         0.44724
C          7.47527         2.95513         0.29312
C          8.74216         3.70125         0.48283
C          9.96647         2.93170         0.42767
C         -8.39410         4.98663         0.63736
C         -7.23703         5.71911         0.44162
C         -5.95047         5.01372         0.19001
C         -4.86378         5.76473        -0.38525
C         -3.73392         5.09211        -1.11035
C         -2.41588         5.74402        -0.73000
C         -1.27373         5.09778        -0.39898
C         -0.10564         5.86816         0.20652
C          1.18029         5.07891         0.36061
C          2.42210         5.88629         0.75282
C          3.67985         5.12876         0.29965
C          4.99354         5.85948         0.47820
C          6.20226         5.11337         0.49874
C          7.44970         5.80730         0.48569
C          8.69845         5.07340         0.54121
C         -7.22036         7.16514         0.35125
C         -6.07082         7.89397         0.11849
C         -4.73962         7.18416         0.07913
C         -3.62564         7.96050        -0.56740
C         -2.42569         7.21665        -0.90960
C         -1.10886         7.96498        -0.86073
C          0.09459         7.22956        -0.42976
C          1.28325         7.89847        -0.38454
C          2.55939         7.14335        -0.11124
C          3.71644         8.04487         0.37106
C          5.01201         7.25147         0.35107
C          6.25019         7.93601         0.23977
C          7.45033         7.21070         0.35438
C         -6.02898         9.33387         0.00811
C         -4.87244        10.01869        -0.25515
C         -3.60929         9.34983        -0.53892
C         -2.37319        10.07523        -0.71076
C         -1.13734         9.43128        -0.73006
C          0.15034        10.06590        -0.74014
C          1.33148         9.32950        -0.67079
C          2.62972         9.96384        -0.78526
C          3.79350         9.34033        -0.41006
C          5.08566         9.97712        -0.49524
C          6.23616         9.34134        -0.12337
C        -10.96725        -0.70883         0.88104
C         -9.86428        -1.49239         0.39631
C         -8.73523        -0.75355        -0.18339
C         -7.46267        -1.54805        -0.51903
C         -6.18675        -0.79437        -0.76654
C         -4.89184        -1.56351        -0.66471
C         -3.64025        -0.78673        -0.59956
C         -2.45056        -1.44052        -0.40690
C         -1.19291        -0.71324        -0.31593
C         -0.01186        -1.39292        -0.23413
C          1.21836        -0.72528         0.30498
C          2.52724        -1.44975        -0.05818
C          3.76989        -0.61001        -0.13669
C          5.05555        -1.37430        -0.19771
C          6.23853        -0.72450         0.44031
C          7.55483        -1.45094         0.39339
C          8.82689        -0.71040         0.64916
C         10.08338        -1.36328         0.18718
C         11.26225        -0.54234         0.11952
C         -9.81675        -2.88395         0.41635
C         -8.61212        -3.61705         0.19428
C         -7.41846        -2.96411        -0.12167
C         -6.13351        -3.61889         0.08205
C         -4.94461        -2.92478        -0.09740
C         -3.66083        -3.50927         0.31707
C         -2.41983        -2.85849        -0.11584
C         -1.24250        -3.57606        -0.22237
C         -0.00734        -2.83028        -0.57729
C          1.26243        -3.54359        -0.89156
C          2.59185        -2.86984        -0.58265
C          3.92995        -3.47230        -0.97494
C          5.09118        -2.84203        -0.43556
C          6.33488        -3.49576        -0.40743
C          7.61700        -2.70708        -0.46254
C          8.86469        -3.50462        -0.14943
C         10.08173        -2.72523        -0.05730
C         -8.65221        -5.11556         0.43794
C         -7.30337        -5.80691         0.40586
C         -6.10685        -5.04322         0.40678
C         -4.88097        -5.73459         0.55547
C         -3.60996        -5.00107         0.63541
C         -2.34613        -5.71540         0.35824
C         -1.22184        -4.99634        -0.02945
C         -0.06992        -5.77651        -0.51557
C          1.21182        -5.06964        -0.99588
C          2.31422        -5.72561        -0.15192
C          4.13790        -4.82959        -1.39295
C          5.18385        -5.61321        -0.79262
C          6.37028        -4.91262        -0.45821
C          7.59774        -5.63656        -0.26045
C          8.82432        -4.87886        -0.08925
C         -7.23223        -7.20512         0.37695
C         -6.00519        -7.91566         0.43569
C         -4.82532        -7.14381         0.64596
C         -3.52718        -7.73578         0.87584
C         -2.32944        -7.14784         0.53111
C         -1.04030        -7.98669         0.53004
C          0.03890        -7.24176        -0.24330
C          1.37401        -7.90721        -0.37924
C          2.55452        -7.16713        -0.45977
C          3.83675        -7.78033        -0.59242
C          5.09008        -7.04443        -0.64995
C          6.31281        -7.74274        -0.44397
C          7.54443        -7.03022        -0.29842
C         -5.98873        -9.32926         0.07821
C         -4.91446       -10.14731        -0.16482
C         -3.55065        -9.82645         0.20994
C         -2.35994       -10.09264        -0.41814
C         -1.10706        -9.40414        -0.12069
C          0.08551        -9.99615        -0.47745
C          1.38301        -9.32479        -0.45621
C          2.63267        -9.95404        -0.54794
C          3.84751        -9.21208        -0.57541
C          5.11653        -9.88117        -0.52817
C          6.28859        -9.17691        -0.41288
O         -0.49580        -6.77302        -1.52410
O         -0.54075         6.15702         1.57226
H         -0.75316         5.29107         1.99110
O          2.98764         6.54081        -1.41576
O          0.49221        -2.97688        -1.99680
O          3.87679         3.97165         2.34251
H          3.57762         3.13799         2.78235
O         -5.54511        -1.33558        -1.98216
O          3.63090        -5.38513        -2.49741
H          2.87085        -4.88279        -2.87607
O         -8.43566        -1.20103        -1.55276
O          3.42713         5.12925        -1.14741
O         -2.88180         3.13029        -2.16895
O         -3.47900        -9.03880         1.38570
O          8.73200         0.91680         2.42024
H          8.23558         0.12935         2.75076
O         -0.60929        -8.15605         1.89282
H         -1.31645        -8.64242         2.36829
O         -4.30044         7.02802         1.48791
H         -4.87208         6.35013         1.91359
O         -3.97633         5.42371        -2.51405
H         -3.36656         4.86043        -3.04421
O         -3.52316         0.52496        -2.56330
H         -4.25800        -0.06785        -2.85157
O          1.26423        -5.38122        -2.40250
H          0.44626        -5.00545        -2.79711
O         -6.94502         1.75974         1.47819
O         -1.71552         7.55839        -2.14831
O         -9.55419        -5.72556        -0.49960
H         -9.28453        -5.45743        -1.40198
O          1.08845        -0.83912         1.75597
H          1.52104        -1.68438         2.02399
O          2.38277         6.14663         2.15621
H          2.80684         5.36836         2.60570
O          2.65132        -5.23324         0.91281
O          6.04281        -0.12996         1.76299
O          7.58487         2.04289        -0.88695
O         -5.41688         4.17180         1.33700
O         -1.08750         3.26557         1.19473
O          7.77004        -2.24315        -1.84507
H          6.88989        -1.96427        -2.17747
O          4.53213        -0.69098        -1.40349
O          3.48479         8.49051         1.72960
H          3.14110         7.72130         2.24977
O          2.25605         2.05803         1.88329
O          2.68603        -2.57555         0.86603
O          8.19172        -1.54016         1.69675
O         -3.58824        -3.99888         1.70330
H         12.21842        -1.02744        -0.12752
H         12.14314         1.40180         0.12337
H         10.90338         3.47803         0.23218
H          9.63385         5.64843         0.61633
H          8.41151         7.74155         0.28121
H          7.20037         9.86611        -0.19685
H          5.13125        11.00997        -0.87400
H          2.66784        10.98816        -1.18927
H          0.20436        11.16282        -0.81507
H         -2.40869        11.17539        -0.69054
H         -4.89515        11.11828        -0.29171
H         -6.96749         9.89124         0.15140
H         -8.18174         7.69327         0.45497
H         -9.34260         5.52702         0.78257
H        -10.55177         3.35757         1.05374
H        -11.77107         1.22783         1.30987
H        -11.87626        -1.23100         1.21404
H        -10.70373        -3.44412         0.74858
H         -9.09915        -5.29506         1.45571
H         -8.16969        -7.77167         0.26929
H         -6.97625        -9.72813        -0.20783
H         -5.10136       -11.10665        -0.67313
H         -2.35398       -10.79239        -1.26885
H          0.06612       -11.03845        -0.83551
H          2.69022       -11.05323        -0.56563
H          5.13274       -10.98097        -0.52362
H          7.24237        -9.71480        -0.30735
H          8.47165        -7.61184        -0.18045
H          9.75428        -5.43905         0.09728
H         11.04344        -3.23657        -0.22429
