         280
 CSIRO Nanostructure Databank - Neutral Graphene Oxide Data Set
C         30.99811        31.53321        -1.21833
C         30.94106        32.77153        -1.32143
C         30.62107        35.92821        -0.93651
C         30.52558        37.16274        -0.74128
C         30.47109        40.32326        -1.01147
C         30.36197        41.53298        -1.25054
C         33.25507        28.82662         0.17498
C         32.20943        29.37028        -0.37400
C         33.28942        31.54247        -0.33560
C         31.96663        30.67304        -0.63241
C         32.89868        33.00007         0.05815
C         32.08012        33.73871        -1.08741
C         32.81279        35.89651        -0.07856
C         31.78880        35.14670        -0.64618
C         32.67000        37.37007         0.30870
C         31.50736        38.10513        -0.37551
C         32.75509        40.24329        -0.40688
C         31.53597        39.46915        -0.57991
C         32.76482        41.67884        -0.63349
C         31.38079        42.49330        -0.67530
C         32.79885        44.24002        -1.52983
C         31.66389        43.75452        -1.45580
C         35.76758        27.24864         0.82316
C         35.51610        28.63440         1.38359
C         34.35296        29.40348         0.75017
C         35.00102        31.74385         1.43676
C         34.23445        30.90432         0.68006
C         35.02278        33.25463         1.47970
C         34.07813        33.86101         0.45476
C         35.07305        36.05690         1.12476
C         34.01737        35.22499         0.38388
C         35.18943        37.45534         0.51855
C         33.97302        38.14013         0.17954
C         35.23418        40.28152         0.06908
C         33.94928        39.51371        -0.11806
C         35.25119        41.60012        -0.67911
C         33.98033        42.34388        -0.81606
C         35.31360        44.41427        -1.26530
C         34.11020        43.72944        -1.25913
C         35.54366        45.80482        -1.52247
C         38.20834        27.29594         0.48786
C         36.81658        26.72392         0.44743
C         37.89995        28.78656         0.09862
C         36.84147        29.36376         1.03817
C         37.76495        31.64777         0.78230
C         36.88966        30.65282         1.42153
C         37.63223        33.14245         0.93154
C         36.40441        33.91696         1.34989
C         37.63418        36.04368         1.02820
C         36.40598        35.29265         1.17903
C         37.65484        37.37726         0.63177
C         36.43340        38.08363         0.38406
C         37.70123        40.28419         0.11218
C         36.48362        39.45319        -0.27745
C         37.70906        41.64020         0.00199
C         36.56318        42.34862        -0.63452
C         37.66258        44.58382        -0.41600
C         36.56219        43.82687        -0.74721
C         37.67373        46.13681        -0.41343
C         36.54224        46.51648        -1.34137
C         40.53354        24.56571        -0.79319
C         39.59075        25.41018        -0.61340
C         40.38631        27.62414        -0.76336
C         39.32551        26.75252        -0.36618
C         40.34869        29.04415        -0.42568
C         39.18553        29.60368         0.06526
C         40.29695        31.87493         0.35786
C         39.05147        31.06688         0.26166
C         40.29036        33.22985         0.94758
C         38.95152        33.85894         1.15538
C         40.19087        36.12503         1.36555
C         38.90347        35.35573         1.34895
C         40.21891        37.46028         0.81990
C         38.95580        38.07989         0.25267
C         40.17141        40.33024         0.31925
C         38.89615        39.57447         0.70044
C         40.17603        41.78524         0.50671
C         38.88309        42.45394         0.42832
C         40.25111        44.59344        -0.11023
C         38.86718        43.96505         0.19534
C         40.22033        46.12504        -0.17546
C         39.03121        46.72906        -0.67385
C         40.37179        48.70036        -1.12281
C         39.29265        48.03181        -1.09116
C         42.98927        24.75651        -1.58514
C         41.58812        24.85291        -1.67726
C         42.84367        27.69598        -1.33963
C         41.54158        27.14492        -1.46869
C         43.02387        29.11097        -0.77550
C         41.63307        29.82258        -0.54417
C         42.76256        31.70255         0.89801
C         41.59652        31.17425         0.13673
C         42.83806        33.21626         1.16079
C         41.47180        33.89819         1.13461
C         42.89686        36.05983         1.32004
C         41.53729        35.34143         1.44900
C         42.75686        37.48344         0.80825
C         41.47410        38.25946         1.08423
C         42.72628        40.42036         0.41997
C         41.46804        39.61216         0.38857
C         42.71504        41.84009         0.88034
C         41.38053        42.49731         0.91778
C         42.73940        44.70723         0.55356
C         41.37275        44.02913         0.75300
C         42.51080        46.23149         0.88723
C         41.44271        46.84042        -0.05462
C         42.86526        48.73616        -0.37047
C         41.54577        48.18724        -0.55148
C         43.86593        25.59936        -1.93673
C         45.23303        27.22936         0.84742
C         44.01815        27.00057        -1.76384
C         45.22448        28.65315         0.73725
C         43.84255        29.30996         0.56831
C         45.27671        31.56892         0.50439
C         43.97990        30.84769         0.87556
C         45.25282        33.10216         0.54591
C         43.93324        33.85252         0.29507
C         45.23094        36.00559         0.46093
C         44.04172        35.33010         0.61812
C         45.19876        37.45291         0.64646
C         43.93169        38.15169         0.58496
C         45.14908        40.35233         1.09415
C         43.98523        39.64054         0.44123
C         45.20553        41.85377         0.75335
C         43.87915        42.52455         1.09547
C         45.21983        44.68816         1.39943
C         43.82551        44.00811         1.45390
C         45.18121        46.20083         1.13032
C         43.91377        46.95847         0.92584
C         43.83245        48.23189         0.20981
C         47.51684        27.37655         1.02961
C         46.50995        26.61292         0.96231
C         47.69442        28.75524         1.04804
C         46.43480        29.39691         0.91870
C         47.73982        31.55436         0.59282
C         46.48625        30.91141         1.16311
C         47.75753        33.05629         0.37965
C         46.41407        33.75669         0.32137
C         47.78778        35.81872        -0.36812
C         46.38974        35.20465        -0.17077
C         48.08724        37.12128        -0.05889
C         46.34264        38.25073         0.82992
C         47.62403        40.32881         0.33256
C         46.43275        39.64070         0.76392
C         47.64536        41.74573         0.52371
C         46.53941        42.39652         1.36690
C         47.95487        44.67317         1.24800
C         46.54368        43.93851         1.40835
C         47.56821        45.96848         0.56274
C         46.52479        46.60410         0.71837
C         50.22495        28.86720         0.81258
C         48.96166        29.52820         1.27664
C         50.08416        31.47297        -0.19442
C         48.92206        30.88732         0.51829
C         49.92838        32.66152        -0.90079
C         48.62370        33.43249        -0.84154
C         49.74613        35.34251        -2.03082
C         48.93681        34.94365        -0.81661
C         50.06263        37.62839        -1.49036
C         48.72556        38.19757        -0.94754
C         49.47134        40.51638        -1.20390
C         48.66108        39.66097        -0.45114
C         49.57396        41.89449        -0.92227
C         48.70419        42.53310        -0.00440
C         50.31422        44.16497         0.39375
C         48.97500        43.86631         0.50358
C         51.22792        29.44312         0.34714
C         52.27761        31.35669        -1.11430
C         51.34423        30.71105        -0.27614
C         52.21101        32.49144        -1.65131
C         50.90529        33.12014        -2.03692
C         51.96740        35.55596        -2.37228
C         50.89381        34.61483        -2.25928
C         52.20820        36.70631        -1.97007
C         51.44283        37.73734        -1.27410
C         52.07183        40.01792        -0.31452
C         52.25202        38.64413        -0.46273
C         52.15756        41.26519        -0.24687
C         51.66524        42.55537        -0.48358
C         51.49140        43.60872         0.43479
O         41.71000        31.05122        -1.32957
O         49.69316        36.68559        -2.48303
O         47.52711        37.58755         1.11612
O         43.52178        40.18928        -0.82151
O         40.81410        39.76037        -0.90249
O         38.82632        34.45593         2.49075
O         37.22600        32.47988        -0.32200
O         45.94220        44.41252         2.66013
O         40.88978        35.85467         2.64176
O         34.57344        36.22666         2.44973
O         36.09209        41.68266        -1.85483
O         50.65362        42.53681        -1.56250
O         39.50952        31.85526        -0.88196
O         38.62158        43.45055         1.51393
O         41.11220        43.46280         2.01857
O         40.65808        44.16750        -1.39753
O         44.55202        46.92980         2.21440
O         35.93799        31.16709         2.31569
O         43.24265        31.04344         2.12299
O         41.32042        26.12391        -2.40273
O         46.73612        41.96356         2.72909
H         46.45147        42.69966         3.31909
O         41.93403        46.34087         2.18278
H         42.44464        45.77017         2.80683
O         32.84771        33.86015        -2.26595
H         33.22684        32.97737        -2.49186
O         45.39959        42.04983        -0.66330
H         44.65718        41.59333        -1.13497
O         38.65743        27.24393         1.83705
H         37.90458        27.46255         2.42744
O         36.49695        39.17691        -1.68951
H         37.33692        38.68802        -1.87833
O         43.14346        44.58870        -0.79952
H         42.29809        44.46442        -1.34873
O         34.43791        33.59211         2.76558
H         34.47012        34.60101         2.86355
O         37.38226        28.77374        -1.24913
H         37.44525        29.68093        -1.61536
O         49.95774        35.14592         0.22686
H         49.58677        34.78331         1.07009
O         43.35499        36.22124         2.70103
H         43.36820        35.31425         3.09243
O         31.04933        42.80695         0.64347
H         30.18898        43.27319         0.66539
O         38.96051        37.99736        -1.20295
H         39.74004        38.51767        -1.52868
O         46.45557        31.14827         2.58575
H         47.22645        30.66890         2.97575
O         42.95727        28.73918         1.53814
H         43.33634        28.86621         2.43279
O         45.20219        27.60600        -1.90945
H         45.06457        28.58592        -1.93153
O         35.30505        40.63984         1.47457
H         35.11751        39.84025         2.01248
O         41.50239        38.58307         2.50389
H         41.57024        37.72662         2.99383
O         48.40367        33.56627         1.58989
H         47.84265        33.30072         2.35138
O         32.06650        32.91830         1.22736
H         32.61600        33.11642         2.02439
O         47.83399        38.20198        -2.09856
H         48.23205        38.77785        -2.78639
O         43.38952        44.14978         2.81893
H         44.18013        44.06260         3.39834
O         43.62179        33.67212        -1.10527
H         44.27922        34.23029        -1.60041
O         50.21968        40.04980        -2.24958
H         50.72456        40.82181        -2.59977
O         45.94589        35.07216        -1.57775
H         46.57131        34.43951        -2.02066
O         44.09163        26.52425         0.87255
H         44.27682        25.56506         0.89764
O         35.37487        28.57117         2.79191
H         34.43892        28.38765         3.01286
O         38.76882        39.54695         2.13237
H         38.60844        40.45554         2.46348
O         43.30455        33.45521         2.51532
H         43.38435        32.57529         2.96284
O         43.73141        29.80060        -1.82072
H         43.13055        30.50023        -2.18273
O         49.04078        29.84139         2.67842
H         49.92828        30.21487         2.86408
O         53.35313        38.10983         0.08068
H         53.42451        37.16479        -0.17937
O         37.32416        46.53968         0.90870
H         36.42373        46.21695         1.12034
O         45.47210        31.30618        -0.90798
H         44.84685        31.87604        -1.41138
O         32.33153        37.41144         1.72057
H         33.09778        36.96370         2.21455
O         44.87575        40.18364         2.50416
H         45.63440        40.58085         2.99928
O         48.45633        44.94444         2.53151
H         47.74683        45.38498         3.04971
O         33.99281        31.57427        -1.59323
H         34.27696        30.66001        -1.80816
O         47.86300        33.14210        -2.04372
H         48.50594        32.92814        -2.76501
O         50.38361        32.54264        -3.25617
H         50.56848        31.57893        -3.24455
