         294
 CSIRO Nanostructure Databank - Neutral Graphene Oxide Data Set
C          1.23098         2.00798        -0.53399
C          1.14635         3.38635        -0.14484
C          2.45661         1.42310        -0.70889
C          2.25969         4.08154         0.26611
C          1.12191         6.29520         0.36332
C          1.12261         7.71983         0.32480
C          2.26963         5.53406         0.24729
C          2.27998         8.45731         0.19756
C          1.12226        10.62966        -0.15461
C          1.14540        12.00742        -0.32716
C          2.30145         9.92337         0.15479
C          2.32014        12.74860        -0.12504
C          1.05056        15.00414        -0.10278
C          1.02471        16.34667        -0.15215
C          2.30428        14.22883        -0.49009
C          2.24793        17.11138        -0.60946
C          2.29307        18.60115        -0.33738
C          3.66204         2.09656        -0.29670
C          3.49412         3.27213         0.64896
C          4.89011         1.54921        -0.56147
C          4.76895         4.13424         0.94317
C          3.55133         6.20892        -0.03692
C          3.54779         7.72699        -0.01996
C          4.84204         5.43884         0.15356
C          4.80360         8.41409         0.40321
C          3.50534        10.65812         0.33057
C          3.51623        12.07190         0.21542
C          4.75687         9.90308         0.62106
C          4.71804        12.89231         0.70441
C          3.50435        14.98177         0.08926
C          3.47848        16.45853         0.03318
C          4.80834        14.28601         0.12636
C          4.77907        17.24165         0.13144
C          3.46167        19.25899        -0.42792
C          4.73986        18.50311        -0.73720
C          6.11653         2.12047        -0.08991
C          6.09232         3.28329         0.88351
C          7.30442         1.47823        -0.33707
C          7.36155         4.11425         0.76822
C          6.13343         6.20126         0.26753
C          6.13602         7.72906         0.04500
C          7.33507         5.49833         0.81699
C          7.27928         8.48374         0.70948
C          6.05465        10.65482         0.65049
C          6.06003        12.15486         0.71614
C          7.30638         9.90700         0.43331
C          7.37233        12.93367         0.44444
C          5.97931        14.97669        -0.07504
C          6.01892        16.41691        -0.18373
C          7.21776        14.19070        -0.45072
C          7.21446        17.10305        -0.33303
C          6.03589        19.25124        -0.55925
C          7.20446        18.57122        -0.42484
C          8.59360         2.03032         0.01914
C          8.61419         3.40041         0.57342
C          9.73855         1.38712        -0.37824
C          9.82081         4.06541         0.58935
C          8.57613         6.23721         1.09965
C          8.59662         7.74587         1.04352
C          9.89157         5.47760         0.98435
C          9.83584         8.46736         0.87397
C          8.57680        10.67910         0.71815
C          8.45299        11.97734        -0.13680
C          9.80958         9.86146         0.29197
C          9.77634        12.73540        -0.37266
C          8.50601        15.00227        -0.36995
C          8.47773        16.36935        -0.35638
C          9.78451        14.24052        -0.45620
C          9.76474        17.15370        -0.48964
C          8.50298        19.35943        -0.47751
C          9.69148        18.58361         0.10551
C         11.08336         2.07482        -0.45030
C         11.11166         3.28116         0.50048
C         12.31916         1.15847        -0.21633
C         12.35495         4.10328         0.20394
C         11.00068         6.29892         0.33444
C         11.14150         7.70694         0.95297
C         12.35887         5.58458         0.25226
C         12.30274         8.43517         0.23365
C         11.08455        10.67399         0.52559
C         11.07539        12.10043         0.06905
C         12.40493         9.91512         0.66961
C         12.35269        12.81121        -0.39591
C         11.07021        14.94641        -0.17127
C         10.98340        16.41268         0.05224
C         12.26326        14.28979        -0.06198
C         12.26018        17.21651         0.10908
C         11.00138        19.30486        -0.17768
C         12.19316        18.67284        -0.20343
C         13.63956         1.92657        -0.03279
C         13.61049         3.32750         0.46617
C         14.84324         1.33409        -0.25875
C         14.90932         4.11441         0.53958
C         13.62448         6.28140         0.77474
C         13.63754         7.73943         0.41663
C         14.89981         5.58539         0.38319
C         14.82616         8.40433         0.14578
C         13.55798        10.61971        -0.11468
C         13.63348        12.13030         0.17713
C         14.81037         9.87567         0.35605
C         14.89756        12.81541        -0.37579
C         13.54716        15.02712         0.05275
C         13.51415        16.49089        -0.14774
C         14.88023        14.30173        -0.14768
C         14.64203        17.17406        -0.52383
C         13.46986        19.42887        -0.57151
C         14.73352        18.62462        -0.32819
C         16.12790         2.01585        -0.06322
C         16.14175         3.38050         0.28269
C         17.33565         1.33955        -0.31595
C         17.37113         4.20167         0.57393
C         16.03748         6.29273        -0.01833
C         16.06271         7.72454        -0.08615
C         17.31201         5.52882        -0.17856
C         17.18912         8.42169        -0.87083
C         16.19705        10.78843        -1.43395
C         16.00138        12.19752        -0.89887
C         17.32114         9.98200        -0.83809
C         17.28012        12.93653        -1.15003
C         15.97820        15.09866        -0.73697
C         15.80469        16.44448        -1.00875
C         17.26657        14.41522        -1.02138
C         17.15629        17.05726         0.85155
C         15.87916        19.21048         0.12932
C         17.11311        18.52682         0.52155
C         18.63499         1.96184        -0.04161
C         18.66680         3.44134         0.36687
C         19.87698         1.42900        -0.61806
C         19.88958         4.20193         0.09810
C         18.58599         6.26943        -0.40719
C         18.55880         7.75551        -0.65756
C         19.82100         5.69623         0.28349
C         19.80357         8.53088        -0.38183
C         18.47580        10.67873        -0.63488
C         18.60360        12.13602        -1.14217
C         19.73641        10.02464        -0.08226
C         19.77852        12.90688        -0.53278
C         18.55661        15.17544        -0.72441
C         18.43680        16.23547         0.45048
C         19.75313        14.30599        -0.33977
C         19.61969        17.22247         0.31123
C         18.26098        19.18918         0.83289
C         19.46586        18.38991         1.31030
C         21.03081         2.14848        -0.59341
C         21.06394         3.54986        -0.21969
C         22.29995         4.30736        -0.28662
C         21.10933         6.43370        -0.00691
C         21.07332         7.81618        -0.02799
C         22.32285         5.66279        -0.12212
C         22.25412         8.63837         0.12673
C         21.03787        10.70210        -0.59825
C         20.97369        12.18909        -0.27990
C         22.23858         9.97960        -0.03060
C         22.09530        12.87582         0.20205
C         20.90424        14.99517         0.14980
C         20.91216        16.44195         0.43178
C         22.05978        14.24547         0.42526
C         22.02422        17.15899         0.76370
C         20.75600        19.17855         1.35209
C         21.93579        18.56840         1.10965
O          5.72237         5.48323        -0.98586
O          4.41735        13.14869         2.11100
O         15.61864        10.44604        -2.45865
O         11.53104        16.83506         1.33811
O          3.58846         6.99242        -1.28153
O         16.42551        16.58551         1.70860
O          6.18371        11.40008         1.94817
O         11.01344        11.76672         1.48558
O         14.42859        14.69367         1.20208
O         14.19820         3.58281         1.75353
O          9.85183        13.37187        -1.68427
O         12.47341         4.88720        -1.03043
O         17.97967         5.48422        -1.47731
O         17.26369        13.78813        -2.36458
O         15.65909        10.39665         1.07342
O          9.33598         5.78297         2.28011
O         18.81270         2.39494         1.37750
O         19.43415         8.17258        -1.76645
O          4.67820         8.94291         1.74469
O          7.65756         8.23090         2.10667
O         13.26787        10.42237        -1.50042
H         13.97950        10.79937        -2.07738
O          4.91509        17.69742         1.49406
H          4.56474        16.97791         2.06800
O          7.95510        11.53918        -1.41848
H          8.52949        10.79549        -1.73264
O         18.90623        15.77189        -2.00897
H         18.76320        15.05113        -2.67053
O          9.71393         9.63729        -1.15009
H         10.43769         8.99372        -1.40250
O         13.52847         6.16934         2.23301
H         14.40417         6.39138         2.61345
O         16.84435         8.13809        -2.24510
H         17.68452         8.08220        -2.75394
O         19.57487         5.95184         1.70765
H         20.24526         5.45734         2.22451
O         12.74397         9.86143         2.06186
H         12.83011        10.79834         2.37356
O         18.95179        11.97637        -2.55520
H         18.15918        11.65031        -3.03417
O         12.00555         8.30287        -1.17832
H         12.68025         8.82062        -1.68756
O         17.27709         4.53632         1.98628
H         17.50084         3.71634         2.48082
O          6.99070        13.87748        -1.84006
H          7.66935        13.21785        -2.12651
O          4.64033         4.63139         2.28843
H          5.05814         3.96428         2.88401
O         19.61283        17.90083        -0.96305
H         20.06013        17.33636        -1.62909
O          9.45575        18.50747         1.51856
H         10.19342        17.98979         1.92147
O         12.45398        12.75471        -1.83444
H         11.56784        13.01006        -2.19703
O         11.41434         7.55049         2.35155
H         11.80126         8.39716         2.68291
O          6.33820         7.95864        -1.36424
H          5.80066         7.28048        -1.84152
O         21.15813        10.53126        -2.02250
H         20.42124        11.02274        -2.46426
O         13.51218        20.68639         0.09876
H         13.45470        20.52585         1.06285
O          4.71468        18.08347        -2.14274
H          4.96145        18.85749        -2.69152
O          3.19624         2.63023         1.93222
H          2.33262         2.17501         1.83408
O         18.66037        15.44221         1.64435
H         17.78581        15.40004         2.11217
O          8.77024        19.73803        -1.83560
H          9.15608        18.95110        -2.28808
O         19.19771        17.91452         2.64893
H         19.31566        16.93582         2.66161
O         11.31320         2.74898         1.84215
H         11.23726         3.48527         2.48725
O          3.17681        15.76795         1.30242
H          3.72338        13.84149         2.16109
O          8.68043        10.94420         2.12703
H          8.29918        10.16561         2.59812
O         11.21196         2.54379        -1.81300
H         10.47607         3.16303        -2.00140
O          2.31279        16.93010        -2.05564
H          3.15589        17.35615        -2.36773
O          6.18302         2.63570         2.19252
H          5.43336         2.00232         2.25102
O         10.00758        17.29766        -1.92806
H          9.69650        16.48150        -2.37554
O         16.64822        17.18179        -1.76149
H         17.44891        16.67393        -2.05983
O         12.11363         0.32506         0.92282
H         11.91505         0.91387         1.68689
O         19.72753        10.20988         1.35176
H         18.85599         9.93514         1.70637
O          7.84063        13.45762         1.69053
H          7.86606        12.70271         2.32962
O         10.46828         6.43837        -1.00633
H         11.11597         6.03077        -1.62872
O         13.65749        12.25904         1.60297
H         13.87742        13.19847         1.83826
O          2.42563        14.23371        -1.93276
H          2.32036        15.17515        -2.23605
H          0.31666         1.48845        -0.85218
H          0.20607         3.91903        -0.34871
H          2.54334         0.43735        -1.18886
H          0.16291         5.79436         0.55838
H          0.15948         8.22831         0.47118
H          0.18295        10.08562        -0.32179
H          0.22481        12.52272        -0.63384
H          0.15158        14.45304         0.21380
H          0.11254        16.90221         0.11543
H          1.35931        19.14044        -0.11373
H          4.94921         0.62233        -1.15429
H          3.50819        20.34637        -0.25848
H          7.29436         0.55070        -0.93147
H          6.04649        20.34696        -0.67176
H          9.64584         0.41383        -0.88604
H          8.37420        20.30527         0.10737
H         12.42128         0.48259        -1.10363
H         10.96363        20.38616        -0.38250
H         14.87791         0.29176        -0.61158
H         13.42164        19.65852        -1.67370
H         17.31400         0.32120        -0.73127
H         15.87030        20.30535         0.26119
H         19.85874         0.42299        -1.06299
H         18.32227        20.28543         0.73921
H         21.95916         1.70307        -0.98084
H         23.23559         3.76056        -0.47170
H         23.28136         6.19546        -0.20127
H         23.18387         8.14892         0.45310
H         23.17899        10.52728         0.11870
H         23.03040        12.34348         0.41391
H         22.95736        14.73916         0.82031
H         23.02105        16.69556         0.78979
H         20.72626        20.22918         1.67792
H         22.87850        19.12593         1.21361
