         349
 CSIRO Nanostructure Databank - Neutral Graphene Oxide Data Set
C          1.17448         1.94921         0.47738
C          1.14842         3.33930         0.64827
C          2.38145         1.26269         0.43184
C          2.34206         4.07539         0.76978
C          1.34947         6.31200         0.06307
C          1.32932         7.65035         0.01435
C          2.22403         5.57249         1.06117
C          2.20217         8.53723         0.89123
C          1.47420        10.52102        -0.74544
C          1.44079        11.85275        -1.01286
C          2.29120         9.98228         0.33569
C          2.18934        12.83713        -0.13294
C          1.22849        14.96717        -1.04307
C          1.28904        16.34541        -1.24089
C          2.36108        14.24454        -0.64235
C          2.49749        17.04160        -1.03168
C          2.53626        18.48797        -1.07736
C          3.60710         1.96786         0.54376
C          3.56374         3.38548         0.70734
C          4.86031         1.28048         0.52434
C          4.86628         4.10707         0.94180
C          3.57767         6.31110         1.12321
C          3.58236         7.80885         1.09779
C          4.75071         5.56803         0.53630
C          4.86694         8.48695         0.75958
C          3.20268        10.88172         0.85997
C          3.46698        12.19287         0.34164
C          5.07216         9.78929         1.11211
C          4.74056        12.80602         0.27501
C          3.61511        14.90031        -0.51250
C          3.67523        16.31970        -0.71743
C          4.79989        14.15397        -0.16053
C          4.91385        17.05231        -0.52646
C          3.66902        19.18605        -0.79351
C          4.92526        18.51377        -0.53396
C          6.09290         1.97417         0.40192
C          6.04952         3.39149         0.34178
C          7.35740         1.29179         0.40672
C          7.21212         4.13080        -0.09454
C          5.96934         6.30914         0.10534
C          6.14086         7.70350         0.64154
C          7.23743         5.58706        -0.05084
C          7.29550         8.46962         0.03273
C          6.15526        10.58947         0.59793
C          6.04335        12.10307         0.78065
C          7.23375         9.92052         0.04470
C          7.30722        12.78694         0.29331
C          6.10500        14.85467        -0.42292
C          6.07376        16.35523        -0.25814
C          7.28753        14.19517         0.22072
C          7.35591        17.06456        -0.21211
C          6.07789        19.23838        -0.28985
C          7.39352        18.59801        -0.21437
C          8.58718         1.97077         0.37461
C          8.60176         3.39078        -0.02776
C          9.84170         1.34731         0.56000
C          9.80881         4.22075         0.19586
C          8.42552         6.29716        -0.13994
C          8.43104         7.76011        -0.28041
C          9.67997         5.63805         0.08430
C          9.71718         8.38791        -0.83599
C          8.41505        10.66469        -0.43449
C          8.46950        12.08543        -0.06553
C          9.70173         9.91312        -0.79518
C          9.67657        12.81902        -0.47156
C          8.53923        14.92509         0.40107
C          8.51863        16.43663         0.51710
C          9.81892        14.18896         0.08511
C          9.81268        17.14299         0.13288
C          8.60706        19.27562         0.29985
C          9.82590        18.61420         0.41032
C         11.05976         2.06382         0.39198
C         11.03087         3.50482         0.31096
C         12.30218         1.36215         0.37293
C         12.30779         4.16846        -0.05637
C         10.74180         6.56507         0.40374
C         10.91785         7.81789        -0.10625
C         12.58269         5.54821         0.31007
C         12.23210         8.56237         0.14008
C         11.00611        10.61658        -0.70597
C         10.95507        12.08290        -0.87086
C         12.21110         9.96272        -0.45985
C         12.24205        12.85285        -0.81979
C         11.09126        14.91719        -0.04516
C         11.09223        16.39729         0.10760
C         12.23870        14.25599        -0.34394
C         12.27450        17.04641         0.80120
C         11.09584        19.24967         0.56968
C         12.32751        18.54729         0.60785
C         13.55021         1.96109         0.06860
C         13.54838         3.35560        -0.41658
C         14.79144         1.35093         0.27649
C         14.84205         4.09863        -0.58181
C         13.59702         6.34272        -0.18652
C         13.54158         7.78688        -0.19229
C         14.82468         5.61055        -0.60528
C         14.70738         8.49727        -0.49536
C         13.48258        10.62857        -0.63804
C         13.52694        12.09935        -0.82838
C         14.68432         9.92258        -0.67517
C         14.80214        12.83399        -0.57736
C         13.53705        14.89794        -0.04179
C         13.57171        16.28479         0.52993
C         14.78711        14.23441        -0.43258
C         14.84977        17.03080         0.50497
C         13.57178        19.18099         0.68290
C         14.83089        18.47562         0.74652
C         16.04968         2.04218         0.13632
C         16.10163         3.42096        -0.23702
C         17.25642         1.37468         0.42756
C         17.33309         4.13463        -0.28632
C         16.09667         6.32470        -0.32722
C         16.03883         7.81554        -0.40967
C         17.37557         5.58365        -0.48591
C         17.28204         8.41416        -1.06297
C         15.95470        10.66325        -0.93328
C         15.99352        12.11070        -0.67989
C         17.27284         9.94280        -1.06515
C         17.27284        12.86447        -0.93222
C         16.05262        15.04826        -0.48638
C         16.01619        16.36053         0.27028
C         17.27059        14.16422        -0.10533
C         17.32529        16.87098         0.81825
C         16.03258        19.14256         0.85914
C         17.36031        18.44529         1.05049
C         18.49904         2.05165         0.37225
C         18.52412         3.43412         0.00606
C         19.72324         1.38831         0.65179
C         19.81539         4.12757        -0.04997
C         18.55597         6.31215        -0.47198
C         18.56854         7.76610        -0.56803
C         19.84904         5.59939        -0.35648
C         19.74390         8.48636        -0.51780
C         18.54058        10.66986        -0.77885
C         18.54101        12.07307        -0.72392
C         19.75078         9.93985        -0.62647
C         19.75666        12.80249        -0.69776
C         18.55529        14.94564        -0.23708
C         18.55232        16.30504         0.11461
C         19.75763        14.26450        -0.56521
C         19.75449        17.04371         0.05654
C         18.51086        19.14161         0.40390
C         19.74014        18.49024         0.21530
C         20.94825         2.10284         0.76572
C         20.97043         3.51041         0.59084
C         22.18531         1.43364         0.94269
C         22.10851         4.32926         1.14227
C         21.06165         6.36936         0.03727
C         21.09186         7.76682        -0.54820
C         22.12727         5.77373         0.63891
C         22.22053         8.60343        -0.01721
C         20.97269        10.66702        -0.58351
C         20.96942        12.07735        -0.70778
C         22.22441         9.99137        -0.28227
C         22.24610        12.78946        -0.90086
C         20.96544        14.99404        -0.56158
C         20.97471        16.38283        -0.25611
C         22.24123        14.32747        -0.86410
C         22.21038        17.11289        -0.21450
C         20.95131        19.20570         0.09975
C         22.19671        18.53477        -0.02589
C         23.41272         2.15113         0.82055
C         23.42351         3.60462         0.89831
C         24.59111         1.44315         0.61810
C         24.63784         4.29949         0.78575
C         23.34953         6.55763         0.97991
C         23.29116         8.02022         0.68530
C         24.68443         5.77516         1.03675
C         24.34296         8.87946         1.04976
C         23.44016        10.72994        -0.17820
C         23.50396        12.12042        -0.55197
C         24.57063        10.10791         0.41018
C         24.69133        12.84410        -0.46838
C         23.49995        15.01471        -0.55980
C         23.46183        16.43221        -0.32764
C         24.71418        14.28946        -0.51108
C         24.67066        17.15971        -0.25429
C         23.42085        19.23795         0.06997
C         24.66372        18.57143        -0.01659
C         25.92455         2.10862         0.59534
C         25.84067         3.60874         0.47461
C         26.91483         1.49123        -0.35466
C         27.04453         4.29059         0.14115
C         26.00389         6.43827         0.81894
C         26.23303         7.78251         1.14931
C         27.11775         5.73796         0.30375
C         27.29574         8.55027         0.65098
C         25.93057        10.66180         0.17764
C         25.96290        12.11772        -0.29661
C         27.22703        10.07181         0.80105
C         27.20464        12.88439        -0.10749
C         25.96523        14.98488        -0.44055
C         25.93881        16.46153        -0.51106
C         27.18440        14.28262        -0.26188
C         27.23438        17.25612        -0.32022
C         25.88602        19.26102         0.25507
C         27.13362        18.61646         0.25681
C         28.01388         2.20178        -0.76104
C         28.13232         3.59453        -0.39764
C         29.07462         1.62622        -1.59937
C         29.36394         4.33435        -0.85368
C         28.32847         6.43039         0.05923
C         28.38723         7.83367         0.12426
C         29.60093         5.62110        -0.05468
C         29.61351         8.53217        -0.32954
C         28.44025        10.77619         0.21268
C         28.43066        12.13255        -0.00900
C         29.65345        10.02886        -0.21363
C         29.72210        12.87890        -0.30447
C         28.48547        15.00212        -0.19783
C         28.51941        16.50423        -0.15321
C         29.62776        14.23074         0.43139
C         29.65909        17.15544         0.52546
C         28.29522        19.21596         0.77057
C         29.53933        18.52149         0.90602
C         30.28636         2.20562        -1.69931
C         30.59853         3.41366        -0.84290
C         31.81615         4.21254        -1.24190
C         30.82175         6.36689        -0.54938
C         30.88240         7.76522        -0.44996
C         31.91331         5.55508        -1.02809
C         32.08108         8.52422        -0.54670
C         30.97285        10.69673        -0.15850
C         30.98906        12.11245         0.03500
C         32.12207         9.90552        -0.35738
C         32.12959        12.85794         0.30873
C         30.92983        15.00358         0.46603
C         30.86445        16.43872         0.74024
C         32.10234        14.27809         0.44950
C         31.96829        17.13574         1.28210
C         30.66953        19.17558         1.46047
C         31.86686        18.48748         1.62409
O         29.37916         9.36734        -1.52415
O          4.92739         5.93776        -0.86900
O         10.06005        12.65210        -1.87115
O         25.30176         8.43723         1.97068
O          9.34788        14.29736         1.47295
O         13.64685        15.13901         1.46320
O         23.96210         6.17636         2.25376
O          7.70081        17.77151        -1.42666
O          7.91411         3.59875        -1.27233
O          8.80801        10.41667        -1.83668
O         16.59235        10.42336        -2.28951
O         12.61992         3.75324        -1.44266
O         28.87918        15.75564        -1.36654
O         17.32026        16.25937         2.10550
O         22.27777        13.58064        -2.12809
O         16.16757         7.15521         0.89411
O         26.66425        17.09946        -1.63785
O         11.73713         6.07930         1.28670
O         20.12481         4.66162        -1.45199
O         10.49895        16.90958        -1.14459
O         26.11203        10.97738        -1.22566
O         12.96073        12.62428        -2.09086
O         14.87797         4.87036        -1.84834
O          3.75526         7.04940         2.37355
O          4.08131        10.43697         1.86821
O         16.19384        15.51068        -1.86504
H         16.47306        14.73521        -2.41634
O         17.26374        13.17303        -2.36494
H         17.09634        12.31600        -2.82766
O         21.89290         4.40880         2.59361
H         22.61262         4.98762         2.94561
O          6.54855         7.47383         2.04255
H          5.73267         7.21620         2.53932
O         12.32916         8.80264         1.58150
H         12.30718         7.91814         2.01477
O         29.24873        13.98231         1.81038
H         29.97804        13.49129         2.24387
O         29.15846         4.71151        -2.23819
H         28.37244         5.29522        -2.28671
O         17.21272         7.97263        -2.44710
H         16.81989         8.71082        -2.97123
O         11.97045        16.88923         2.21844
H         12.46263        16.09248         2.53127
O          8.30641        16.73401         1.91983
H          8.85774        16.10583         2.43944
O         17.13580        13.76257         1.26597
H         17.17397        14.60768         1.81599
O          6.05293        12.33178         2.21851
H          5.30445        11.81223         2.59449
O          1.56784         8.59349         2.19114
H          2.15340         9.11630         2.78017
O         29.78453        13.15238        -1.71857
H         29.75516        12.29895        -2.19956
O          1.58170         5.67714         2.34800
H          1.51941         6.64197         2.56007
O         29.90801         5.23792         1.33098
H         30.11050         6.05489         1.83354
O         17.73435        18.62951         2.44617
H         17.64327        17.69822         2.83542
O         27.21948        10.38215         2.21666
H         26.51096         9.83345         2.62890
O          1.34254        12.98259         1.07664
H          1.78460        13.63115         1.66494
O         21.38148         7.58280        -1.97052
H         20.72858         6.94339        -2.33098
O          6.37132        14.66852        -1.87728
H          6.87483        15.44553        -2.20670
O         30.85259         2.89288         0.48418
H         30.74336         3.63556         1.12436
O          9.80752         8.00637        -2.22916
H          9.25651         8.64229        -2.73925
O         26.47414         1.85814         1.96689
H         25.86231         2.29142         2.60077
O          5.08946         4.12988         2.39486
H          4.25794         4.43154         2.82199
H          0.22819         1.39700         0.39240
H          0.18389         3.86127         0.71329
H          2.39569         0.17055         0.30715
H          0.66473         5.73268        -0.57561
H          0.61222         8.13426        -0.66313
H          0.87842         9.84443        -1.37365
H          0.80034        12.23795        -1.81960
H          0.26868        14.44217        -1.14951
H          0.38129        16.90392        -1.51023
H          1.60283        19.02179        -1.30921
H          4.86002         0.18025         0.52804
H          3.66013        20.28585        -0.80447
H          7.35592         0.20378         0.57099
H          6.01282        20.33122        -0.17234
H          9.88057         0.26201         0.73558
H          8.54594        20.35541         0.50712
H         12.28909         0.28925         0.61851
H         11.12466        20.35093         0.59583
H         14.81911         0.31103         0.63497
H         13.60525        20.28240         0.68494
H         17.23342         0.31302         0.71277
H         16.03126        20.24060         0.95582
H         19.71856         0.30428         0.83504
H         18.45881        20.23495         0.26719
H         22.20910         0.33535         0.98785
H         20.94195        20.30019         0.21255
H         24.56264         0.34281         0.61109
H         23.40362        20.32260         0.24881
H         26.80537         0.42770        -0.61380
H         25.82858        20.30594         0.59416
H         28.84948         0.69468        -2.14098
H         28.23994        20.25634         1.12484
H         31.07704         1.75703        -2.31958
H         32.68893         3.66877        -1.63559
H         32.84673         6.06552        -1.31113
H         33.03251         7.99620        -0.70001
H         33.10328        10.40124        -0.38419
H         33.09655        12.34878         0.43469
H         33.06850        14.79147         0.56167
H         32.91669        16.60979         1.45757
H         30.59035        20.23167         1.75433
H         32.73987        19.00448         2.04624
