         404
 CSIRO Nanostructure Databank - Neutral Graphene Oxide Data Set
C          1.54377         1.99906         0.98428
C          1.45074         3.38719         0.83559
C          2.71280         1.33575         0.64276
C          2.51771         4.13698         0.29762
C          1.29929         6.32726         0.59227
C          1.20309         7.71363         0.44707
C          2.40930         5.59082         0.11878
C          2.14058         8.40825        -0.33340
C          1.23230        10.50671        -1.47210
C          1.33304        11.82257        -1.80765
C          2.15948         9.93042        -0.42628
C          2.40292        12.65252        -1.31627
C          1.27002        14.88316        -2.02980
C          1.28908        16.22512        -2.14713
C          2.48617        14.08086        -1.72054
C          2.47062        17.04584        -1.77242
C          2.66943        18.41341        -2.28196
C          3.81945         2.06140         0.12769
C          3.69723         3.46656        -0.09578
C          5.04823         1.39997        -0.12969
C          4.84795         4.18339        -0.69643
C          3.43015         6.29480        -0.56474
C          3.14167         7.62148        -0.91193
C          4.75851         5.68716        -0.92908
C          4.98519         8.70274        -0.87996
C          3.52097        10.63113        -0.50511
C          3.49796        12.03609        -0.66837
C          4.79945         9.98694        -0.34302
C          4.67204        12.81679        -0.18728
C          3.74873        14.82171        -1.42013
C          3.71718        16.31529        -1.33792
C          4.86722        14.18009        -0.68408
C          5.01339        16.98773        -1.43563
C          3.87942        19.02539        -2.21139
C          5.08817        18.34493        -1.76690
C          6.23202         2.12103        -0.41289
C          6.17695         3.54883        -0.59848
C          7.47275         1.46112        -0.49286
C          7.34634         4.29966        -0.74407
C          6.05210         6.44693        -0.80690
C          6.08831         7.87012        -0.60400
C          7.28408         5.76046        -0.74614
C          7.24964         8.53786        -0.10997
C          5.97657        10.63892         0.15475
C          5.92340        12.10417         0.36152
C          7.18329         9.93332         0.22156
C          7.18952        12.87069         0.40737
C          6.06274        14.84559        -0.54324
C          6.21370        16.18794        -1.17180
C          7.22096        14.20337         0.04952
C          7.51998        16.94018        -1.04267
C          6.33083        19.03624        -1.68614
C          7.50651        18.40676        -1.23688
C          8.66869         2.19201        -0.66144
C          8.62015         3.62560        -0.73125
C          9.91876         1.52992        -0.72328
C          9.83816         4.34426        -0.81469
C          8.50455         6.48875        -0.52855
C          8.47605         7.81919        -0.10674
C          9.81401         5.84764        -0.94227
C          9.68980         8.48361         0.43333
C          8.39670        10.61761         0.73749
C          8.40478        12.15027         0.85757
C          9.70054         9.94698         0.63940
C          9.72410        12.81258         0.83603
C          8.43937        15.01298         0.32627
C          8.61050        16.34853        -0.24520
C          9.73251        14.28131         0.77975
C          9.79812        17.05053        -0.07185
C          8.70084        19.09999        -0.99925
C          9.88142        18.44751        -0.52673
C         11.11311         2.24780        -0.85225
C         11.06493         3.67600        -0.90596
C         12.37570         1.56804        -0.78946
C         12.33055         4.43503        -1.07109
C         11.07329         6.45801        -0.35420
C         11.00973         7.77375         0.33421
C         12.26933         5.85138        -0.58321
C         12.23184         8.58203         0.52824
C         10.88886        10.63925         0.85916
C         10.91116        12.09987         0.93655
C         12.15033         9.92688         0.88043
C         12.18828        12.81866         1.02924
C         11.00631        14.98621         0.61057
C         10.98713        16.35771         0.35729
C         12.22770        14.23294         0.84445
C         12.26631        17.09833         0.39813
C         11.08446        19.13726        -0.53289
C         12.33296        18.53811        -0.06598
C         13.61431         2.18677        -0.84134
C         13.66117         3.66998        -1.12813
C         14.73272         1.37448        -0.40213
C         14.87765         4.42349        -0.69280
C         13.52136         6.60159        -0.32199
C         13.48868         7.91189         0.35400
C         14.82885         5.86104        -0.33672
C         14.68822         8.52273         0.69844
C         13.36681        10.64961         1.31802
C         13.40778        12.13421         1.26179
C         14.67682         9.88476         1.25764
C         14.65060        12.82115         1.42018
C         13.48032        14.89429         0.83978
C         13.50301        16.26893         0.28093
C         14.68969        14.24569         1.18515
C         14.79361        16.95916        -0.00617
C         13.63258        19.11591        -0.43944
C         14.82167        18.42649        -0.26123
C         16.07672         1.68533        -0.56116
C         16.11581         3.86768        -0.70911
C         17.24894         1.19444         0.06612
C         17.14356         4.21980         0.33704
C         16.00145         6.47669         0.30835
C         15.93583         7.81015         0.68680
C         17.22937         5.71971         0.45056
C         17.14192         8.49610         1.19335
C         15.93947        10.64821         1.26189
C         15.88080        12.03749         1.55809
C         17.16585         9.97540         1.21856
C         17.11077        12.58575         1.97749
C         15.92829        15.03627         1.12257
C         16.01983        16.29396         0.46946
C         17.13197        14.60264         1.72880
C         17.24945        16.98133         0.38179
C         16.08912        19.03493        -0.41580
C         17.29049        18.34169        -0.12961
C         18.43300         1.97215         0.20606
C         18.46136         3.45273         0.30724
C         19.65762         1.28102         0.33100
C         19.60733         4.08758         0.71744
C         18.40129         6.33330         0.77548
C         18.43688         7.75470         1.17503
C         19.60001         5.53137         1.08169
C         19.72038         8.50653         0.89849
C         18.41668        10.65151         1.36572
C         18.39264        12.04079         1.69685
C         19.67257         9.96098         1.30405
C         19.61012        12.82480         1.71749
C         18.42128        15.05105         1.37149
C         18.46874        16.33879         0.76076
C         19.62533        14.26808         1.59114
C         19.71684        17.00760         0.63626
C         18.53247        18.98179        -0.26036
C         19.74553        18.34754         0.11655
C         20.88378         1.93470         0.56236
C         20.83737         3.30965         1.17041
C         22.10392         1.31534         0.31112
C         22.14052         4.07669         1.05448
C         20.85867         6.26796         1.45323
C         20.94753         7.75546         1.37185
C         22.13731         5.48578         1.51961
C         22.13299         8.44036         1.54072
C         20.86697        10.65573         1.48878
C         20.84590        12.10249         1.63132
C         22.13498         9.91354         1.53105
C         22.07273        12.81966         1.61564
C         20.86979        14.95504         1.46383
C         20.91193        16.36167         1.07468
C         22.08758        14.22483         1.58520
C         22.12612        17.08051         0.98642
C         20.97582        19.02118         0.01331
C         22.17197        18.40297         0.43560
C         23.33894         2.01871         0.39039
C         23.33653         3.43510         0.75958
C         24.54235         1.37275         0.11245
C         24.59481         4.14087         0.76067
C         23.41825         6.23354         1.68311
C         23.41313         7.73116         1.63227
C         24.73307         5.46680         1.48085
C         24.60756         8.40565         1.68119
C         23.32728        10.59721         1.64378
C         23.34174        12.06767         1.44944
C         24.60959         9.88429         1.84238
C         24.64414        12.81891         1.40722
C         23.36421        14.96401         1.71687
C         23.38011        16.48938         1.46268
C         24.65296        14.28841         1.57427
C         24.66407        17.12394         1.13598
C         23.41112        19.09036         0.33055
C         24.64547        18.47577         0.63471
C         25.77925         2.07580         0.09308
C         25.77266         3.50060         0.36462
C         26.99281         1.43214        -0.15354
C         27.00075         4.23696         0.21220
C         25.83824         6.33446         0.96746
C         25.89986         7.68342         1.50975
C         26.86295         5.73157         0.04906
C         27.17349         8.49214         1.29543
C         25.92998        10.65115         1.71454
C         25.92483        12.10390         1.52400
C         27.15847         9.95235         1.33646
C         27.12375        12.78779         1.39489
C         25.83718        14.99954         1.52701
C         25.87161        16.43461         1.31376
C         27.12036        14.26185         1.59538
C         27.12867        17.11797         1.05558
C         25.86702        19.15088         0.43204
C         27.10605        18.50094         0.63539
C         28.22307         2.14784        -0.19717
C         28.19944         3.59598        -0.06857
C         29.42910         1.48446        -0.43277
C         29.44612         4.33490        -0.21643
C         28.19349         6.48804        -0.01029
C         28.28003         7.89647         0.48594
C         29.46848         5.74261        -0.13099
C         29.58808         8.58335         0.56254
C         28.33931        10.66807         1.05971
C         28.34147        12.08172         1.16312
C         29.59291         9.96345         0.78249
C         29.59011        12.81617         0.90059
C         28.39830        15.02363         1.49492
C         28.36802        16.46178         1.14648
C         29.62398        14.29487         1.04235
C         29.59928        17.10989         0.82722
C         28.32057        19.16623         0.36804
C         29.56523        18.50214         0.44846
C         30.66499         2.18752        -0.54130
C         30.66546         3.62089        -0.41132
C         31.86640         1.50552        -0.79914
C         31.89589         4.33021        -0.53000
C         30.70644         6.45902        -0.10641
C         30.76215         7.86876         0.19411
C         31.91966         5.76163        -0.36163
C         32.00210         8.56656         0.17641
C         30.83516        10.68700         0.69454
C         30.86792        12.08820         0.82619
C         32.04516         9.97146         0.41879
C         32.09079        12.81742         0.71383
C         30.92678        14.99672         1.34459
C         30.85694        16.43168         0.86540
C         32.12985        14.23746         0.83683
C         32.05111        17.09460         0.55738
C         30.77359        19.16642         0.14729
C         32.01340        18.49462         0.19825
C         33.09036         2.20303        -0.96190
C         33.08489         3.61897        -0.81463
C         34.31693         1.50835        -1.20335
C         34.31517         4.37315        -1.08929
C         33.16070         6.47361        -0.39416
C         33.21164         7.86516        -0.11528
C         34.38402         5.78505        -0.65454
C         34.46013         8.55818        -0.12199
C         33.27662        10.67982         0.31084
C         33.30108        12.09717         0.44600
C         34.49637         9.96817         0.06389
C         34.53464        12.80418         0.32084
C         33.33782        14.93922         0.66930
C         33.32758        16.40239         0.59051
C         34.53776        14.20952         0.43623
C         34.50899        17.11354         0.38381
C         33.21503        19.16161        -0.11044
C         34.47161        18.51037        -0.01765
C         35.55295         2.15912        -1.35183
C         35.57058         3.64125        -1.45701
C         36.77027         1.45787        -1.39134
C         36.89934         4.40957        -1.42573
C         35.61139         6.41957        -0.50664
C         35.67942         7.82890        -0.28485
C         36.85802         5.57472        -0.40974
C         36.92929         8.51091        -0.29025
C         35.74103        10.66437        -0.01195
C         35.76921        12.08342         0.09908
C         36.96003         9.92862        -0.20663
C         37.00230        12.78329        -0.06822
C         35.82714        14.91521         0.46967
C         35.81227        16.42483         0.51305
C         37.04643        14.20738         0.02088
C         37.08257        17.13852         0.15445
C         35.63270        19.20006        -0.38264
C         36.97097        18.62154        -0.28111
C         38.03285         2.11844        -1.30878
C         38.09782         3.52897        -1.14614
C         39.24836         1.37535        -1.27300
C         39.31796         4.14786        -0.84717
C         38.13115         6.37391        -0.48601
C         38.16646         7.75350        -0.40800
C         39.36170         5.57077        -0.44979
C         39.43359         8.47095        -0.50146
C         38.19897        10.63233        -0.35090
C         38.20939        12.05248        -0.32844
C         39.42729         9.90001        -0.53486
C         39.42839        12.77266        -0.56309
C         38.21549        14.92543        -0.29907
C         38.24103        16.36986        -0.31621
C         39.42191        14.20155        -0.61287
C         39.36017        17.06062        -0.82308
C         38.07321        19.16509        -1.05233
C         39.27151        18.46965        -1.17093
C         40.46729         2.01426        -1.13676
C         40.53150         3.41387        -0.91983
C         41.78820         4.12713        -0.96354
C         40.70267         6.29383        -0.48164
C         40.65885         7.77022        -0.62488
C         41.86674         5.48355        -0.88590
C         41.84796         8.49392        -0.84273
C         40.64511        10.61007        -0.73454
C         40.64113        12.05886        -0.78010
C         41.84216         9.87641        -0.90143
C         41.82159        12.79309        -1.03481
C         40.61038        14.90649        -0.94204
C         40.56823        16.34762        -1.14476
C         41.80351        14.17343        -1.12712
C         41.65004        17.03829        -1.69447
C         40.40551        19.11179        -1.77055
C         41.56978        18.41692        -1.99413
O         23.96667        12.40715         0.12752
O         22.73810         5.70041         2.87151
O         35.98356        15.65250         1.75014
O         25.33592        10.30019         3.05331
O         40.12820         5.81568         0.78614
O         17.75139         7.96509         2.44147
O          2.80265        16.87495        -0.33741
O         26.94042         7.83395         2.58428
O          8.18672        11.29214         2.02057
O         34.71822         4.16463        -2.52908
O          7.20733        16.18010        -2.26763
O         37.37948        18.21183         1.08603
O         12.31336        18.14833         1.39757
O         14.38767         6.64995        -1.51758
O         29.48177        13.76739        -0.29728
O          4.03450         8.24937        -1.79382
O         16.34192         2.73122        -1.46994
O         14.07000        16.24512        -1.08544
O          3.53964        14.29449        -2.77314
O         28.00717         7.62779        -0.94467
O         13.00869         4.14849        -2.34285
O          4.64011         4.76094        -2.04885
O         19.94846         5.77460         2.51816
O         17.04863        13.71264         2.80442
O         23.32206        15.93001         2.81373
O         10.22025         7.71641         1.58437
O          4.89259        12.62348         1.25129
O         27.89963        14.64720         2.80888
O          8.83160        14.92781         1.73266
O         13.94935        10.04627         2.52445
O          9.88829         6.14590        -2.38031
H         10.65683         5.65757        -2.74879
O         19.81179         8.48963        -0.57335
H         20.56143         9.06520        -0.83666
O         31.03332        15.02516         2.79788
H         31.85392        15.50634         3.03490
O          1.60982        10.36553         0.86609
H          1.66477        11.34446         0.90084
O         20.63419         3.10638         2.60822
H         20.52785         4.00628         3.00739
O         26.23246         5.86094        -1.28287
H         26.58458         6.69860        -1.67200
O         16.50573         3.77708         1.58949
H         17.09555         4.03727         2.33034
O         36.82090         4.93810         0.90519
H         37.11379         5.59291         1.57355
O         37.12634         4.97531        -2.73439
H         36.25240         4.97780        -3.19555
O         25.20698         5.09102         2.81948
H         24.41139         5.09244         3.40660
H          0.68987         1.43843         1.38890
H          0.51958         3.88684         1.13248
H          2.80343         0.25009         0.78810
H          0.50972         5.81272         1.15569
H          0.38617         8.25999         0.93662
H          0.40787         9.89260        -1.86102
H          0.60518        12.26333        -2.50445
H          0.33896        14.33763        -2.24591
H          0.37777        16.75838        -2.45974
H          1.81239        18.93318        -2.73607
H          5.10708         0.31017         0.00701
H          3.98555        20.05926        -2.57266
H          7.51343         0.36641        -0.39638
H          6.35265        20.11576        -1.89683
H          9.94823         0.43251        -0.65764
H          8.74802        20.17841        -1.21205
H         12.34346         0.48460        -0.59612
H         11.12086        20.14697        -0.96897
H         14.47573         0.46454         0.16253
H         13.65674        20.16390        -0.77478
H         17.27318         0.15694         0.43494
H         16.14280        20.09418        -0.70782
H         19.67264         0.20399         0.10215
H         18.56875        20.01383        -0.63892
H         22.11449         0.27410        -0.04652
H         21.00655        20.04321        -0.39077
H         24.53760         0.29488        -0.10845
H         23.41101        20.11988        -0.05638
H         27.00547         0.34507        -0.32337
H         25.85595        20.18966         0.07074
H         29.42829         0.39086        -0.55342
H         28.29561        20.22136         0.05759
H         31.85282         0.41035        -0.90080
H         30.74954        20.22990        -0.13278
H         34.29901         0.40771        -1.20005
H         33.18370        20.21904        -0.41110
H         36.75120         0.35733        -1.38773
H         35.53693        20.21126        -0.80579
H         39.20815         0.28351        -1.39702
H         37.95812        20.14768        -1.53337
H         41.40105         1.43526        -1.18257
H         42.69461         3.54545        -1.19005
H         42.82915         5.97922        -1.07735
H         42.80295         7.96146        -0.94550
H         42.79611        10.39565        -1.05773
H         42.77710        12.27454        -1.18530
H         42.74488        14.69556        -1.34264
H         42.58187        16.51055        -1.93650
H         40.33162        20.17797        -2.02777
H         42.44056        18.92167        -2.43500
