         236
 CSIRO Nanostructure Databank - Neutral Graphene Oxide Data Set
C        -11.12543         0.65224        -0.80689
C         -9.80365         1.38683        -0.86198
C         -8.76947         0.74531         0.06514
C         -7.49129         1.47787         0.19168
C         -6.21856         0.71950         0.22550
C         -5.05231         1.39810         0.30485
C         -3.76262         0.69853         0.00041
C         -2.51019         1.41721         0.40114
C         -1.33865         0.70665         0.17542
C         -0.04803         1.43339         0.07720
C          1.19613         0.59900         0.34843
C          2.44424         1.45374         0.16149
C          3.75238         0.78114        -0.10020
C          4.98722         1.43821         0.39916
C          6.27144         0.74004         0.26169
C          7.54143         1.44905        -0.02051
C          8.66210         0.70514        -0.44100
C          9.89402         1.35200        -0.79463
C         11.07247         0.53175        -1.02101
C         -9.85865         2.88467        -0.63007
C         -8.70128         3.59726        -0.47559
C         -7.37952         2.84501        -0.50329
C         -6.22897         3.62444         0.10515
C         -5.06624         2.85203         0.60507
C         -3.80324         3.55930         1.00307
C         -2.45578         2.82679         0.98930
C         -1.39034         3.66908         0.23777
C         -0.05714         2.92299         0.15443
C          1.15901         3.61673         0.68338
C          2.41889         2.82782         0.75984
C          3.69719         3.56515         0.73695
C          4.85026         2.71237         0.87411
C          6.69378         3.75680         0.50364
C          7.68500         2.88210        -0.02375
C          8.78064         3.52812        -0.68778
C          9.92400         2.73354        -0.99144
C         -8.64024         5.04250        -0.45775
C         -7.44612         5.72426        -0.29631
C         -6.23323         4.98579         0.05604
C         -5.04120         5.77403         0.46630
C         -3.81141         5.07059         0.93369
C         -2.51020         5.82100         0.96029
C         -1.22401         5.07166         0.82029
C          0.04041         5.83393         0.59770
C          1.27853         5.08632         0.59602
C          2.52611         5.69553         0.52691
C          3.76936         4.94113         0.54151
C          4.99312         5.56200        -0.17861
C          6.40707         5.00744        -0.01590
C          7.48417         5.64172        -0.73103
C          8.68849         4.91996        -0.94885
C         -7.36494         7.16963        -0.36071
C         -6.17969         7.86331        -0.28155
C         -4.86874         7.11060        -0.22233
C         -3.67047         7.91144         0.26866
C         -2.52662         7.27524         0.68758
C         -1.22969         7.98860         0.79258
C          0.03713         7.22069         0.62643
C          1.27807         7.93713         0.42815
C          2.61325         7.21174         0.59363
C          3.64885         7.74582        -0.39822
C          4.99241         7.06453        -0.27548
C          6.13567         7.72161        -0.75125
C          7.34253         7.02124        -1.03140
C         -6.10710         9.29555        -0.43778
C         -4.92391         9.97253        -0.38550
C         -3.66349         9.33565        -0.03643
C         -2.49317        10.05776        -0.00496
C         -1.22234         9.46567         0.43574
C          0.05967        10.13189        -0.02120
C          1.30558         9.28861         0.14137
C          2.56085         9.95448        -0.12878
C          3.71889         9.25633        -0.36012
C          4.95677         9.89044        -0.73609
C          6.08705         9.16321        -0.96126
C        -11.21471        -0.66466        -0.55700
C        -10.06365        -1.50042        -0.11195
C         -8.75119        -0.74545         0.24603
C         -7.49603        -1.48480         0.17939
C         -6.19009        -0.76804        -0.06095
C         -5.06314        -1.37150         0.81235
C         -3.74400        -0.75769         0.39932
C         -2.54402        -1.45169         0.28827
C         -1.33714        -0.71076         0.02097
C         -0.11585        -1.43487        -0.38941
C          1.18690        -0.64899        -0.59988
C          2.48538        -1.47103        -0.38084
C          3.76294        -0.71366        -0.19796
C          4.90297        -1.33677         0.58615
C          6.19851        -0.63993         0.22179
C          7.31215        -1.46929        -0.24088
C          8.59789        -0.75820        -0.61049
C          9.84751        -1.55165        -0.60892
C         11.06760        -0.82479        -0.88250
C         -9.90509        -2.88756        -0.48550
C         -8.72071        -3.58864        -0.18794
C         -7.49817        -2.87564         0.17232
C         -6.27360        -3.62669         0.38836
C         -5.06499        -2.89561         0.81580
C         -3.74236        -3.64073         0.74272
C         -2.49431        -2.89915         0.44887
C         -1.31800        -3.61176         0.27953
C         -0.09907        -2.93864        -0.25862
C          1.24759        -3.68418        -0.36081
C          2.46288        -2.88043         0.07567
C          3.66599        -3.54507         0.38983
C          4.92308        -2.84167         0.47454
C          6.15653        -3.52848         0.52352
C          7.35012        -2.88503         0.15241
C          8.58428        -3.61574        -0.02079
C          9.79499        -2.91049        -0.41756
C         -8.63142        -4.97768        -0.41869
C         -7.43537        -5.71629        -0.19548
C         -6.23078        -5.01937         0.25984
C         -5.00202        -5.76723         0.41898
C         -3.78094        -5.09289         0.47604
C         -2.50766        -5.76842         0.47447
C         -1.31203        -5.03899         0.47916
C         -0.00898        -5.71325         0.65205
C          1.24165        -5.04036         0.27465
C          2.44329        -5.70641         0.44277
C          3.69149        -5.00218         0.46994
C          4.92129        -5.71714         0.58695
C          6.15037        -4.95068         1.05799
C          7.51675        -5.71264         0.96403
C          8.60642        -4.97181         0.22416
C         -7.41416        -7.07122        -0.47830
C         -6.29748        -7.99330        -0.09323
C         -5.03652        -7.26869         0.40437
C         -3.73352        -8.02665         0.39712
C         -2.48665        -7.21667         0.55600
C         -1.33255        -7.83728         0.91904
C         -0.00917        -7.20513         0.87674
C          1.17529        -8.00011         0.38724
C          2.43797        -7.19475         0.34730
C          3.72018        -7.90047         0.59146
C          4.96369        -7.11444         0.52565
C          6.21443        -7.82927         0.42521
C          7.39951        -7.13832         0.47246
C         -5.96520        -8.99246        -1.18170
C         -4.77921        -9.63216        -1.23572
C         -3.63093        -9.31240        -0.39265
C         -2.50339       -10.08675        -0.58336
C         -1.23050        -9.89823         0.08255
C          0.04281       -10.19083        -0.32380
C          1.23491        -9.51095         0.22551
C          2.46395       -10.09823         0.13248
C          3.73229        -9.40393         0.47842
C          5.04409       -10.00153         0.14399
C          6.18008        -9.26595         0.15024
O         -1.88172         3.88158        -1.09880
H         -1.44637         3.21404        -1.68268
O         -1.16903         9.03207         1.82849
O          0.20540        -6.32382         2.01889
O         -4.54589        -7.94740         1.61963
O          3.15121         7.39478        -1.74215
H          3.69411         7.88701        -2.39478
O         -4.41549        -3.36717         2.03888
O          3.03556         1.46766        -1.17897
O          1.47437        -3.94481        -1.77871
H          1.07910        -3.18468        -2.27224
O         -9.65713        -1.22432         1.27331
O         -0.41936        -2.30304        -1.54328
O          4.68749         5.13291        -1.57131
H          3.92981         5.69354        -1.87866
O         -1.74749         5.36685         2.14451
O         -6.84746        -8.79158         0.99575
H         -6.12706        -8.86933         1.66935
O         -4.53303         6.77006        -1.60692
H         -4.58188         7.59188        -2.13916
O          5.92115         3.27743         1.56338
O          5.88162        -4.77508         2.49379
H          4.95490        -4.46721         2.59131
O          3.68814        -8.75040         1.80030
O         -0.10072        10.46955        -1.40777
H          0.75977        10.78690        -1.75050
O          3.47080        -1.27008        -1.49086
O         -8.42637         1.45005         1.30551
O         -5.87665        -0.99692        -1.45444
H         -5.22140        -0.30898        -1.74418
O         -5.32375        -0.93307         2.16582
H         -4.87024        -1.56908         2.76543
O         -2.01547         2.66127         2.35092
H         -2.81918         2.66463         2.91898
O          1.70973        -7.51364        -0.90545
O          4.59794        -1.03283         1.98580
H          5.34376        -1.34825         2.53840
O          1.17039         0.11560         1.70065
H          1.16084         0.89687         2.30114
O         -7.05323         2.56699        -1.85384
O         -1.33223        -9.17813         1.28848
O          8.08783        -5.86698         2.29988
H          7.37244        -5.66552         2.94770
O         -4.70152         3.07315         2.03744
O         -3.71630         0.68366        -1.49939
H         -2.86980         0.25971        -1.76564
O         -9.30865         1.17663        -2.21601
H         -8.45193         1.70235        -2.30654
O          0.10836         2.26017        -1.13777
O          3.11515         7.52793         1.91844
H          2.44709         7.23935         2.57538
O          1.12769        -0.21255        -1.95352
H          1.98416         0.23040        -2.16845
O         -4.73675         5.71371         1.88309
O          1.60401         2.99636         1.96252
O          7.66339        -1.20665        -1.65454
H         12.00053        -1.39520        -1.00278
H         12.01134         1.04923        -1.26807
H         10.82963         3.21046        -1.39409
H          9.54516         5.43627        -1.40642
H          8.18693         7.57172        -1.47189
H          7.01367         9.66900        -1.26948
H          4.97367        10.98611        -0.83739
H          2.56383        11.05439        -0.19943
H          0.20238        11.08823         0.56846
H         -2.48314        11.09602        -0.36878
H         -4.91229        11.06021        -0.55011
H         -7.04139         9.84514        -0.62988
H         -8.30280         7.73089        -0.50263
H         -9.57092         5.61022        -0.61897
H        -10.82705         3.40399        -0.71708
H        -12.03045         1.20530        -1.10389
H        -12.19238        -1.16886        -0.62381
H        -10.70468        -3.39444        -1.04638
H         -9.52678        -5.52297        -0.75392
H         -8.33288        -7.54853        -0.85348
H         -6.78114        -9.30877        -1.84878
H         -4.63875       -10.44214        -1.96926
H         -2.56073       -10.87897        -1.34799
H          0.20201       -10.87230        -1.17373
H          2.53629       -11.14941        -0.18661
H          5.08017       -11.06979        -0.11747
H          7.14134        -9.75143        -0.07617
H          8.34711        -7.68492         0.34736
H          9.54561        -5.52627         0.07257
H         10.72373        -3.49859        -0.47561
