         256
 CSIRO Nanostructure Databank - Neutral Graphene Oxide Data Set
C         30.70283        31.90941         0.73823
C         30.46749        32.94117         0.07491
C         30.40795        36.01605         0.04813
C         30.52796        37.08280         0.64623
C         30.77202        40.06829         1.76515
C         30.60472        41.25409         2.17253
C         32.91099        28.91073         0.44356
C         32.04597        29.67392         0.92493
C         32.89035        31.59346        -0.19895
C         31.79138        31.01687         0.56707
C         32.76266        32.97658        -0.78595
C         31.44101        33.75313        -0.64430
C         32.74387        36.02563        -0.71546
C         31.41770        35.25042        -0.69016
C         32.90487        37.27442         0.14651
C         31.73445        37.84302         0.95479
C         33.17704        39.81960         1.70661
C         31.78420        39.22942         1.34890
C         33.11434        41.34533         1.97354
C         31.80416        42.07238         2.41719
C         33.03180        44.09255         2.28052
C         31.92630        43.52843         2.29416
C         35.46114        27.20834        -0.06401
C         35.23806        28.50349        -0.69014
C         34.00787        29.35411        -0.41383
C         35.22223        31.48642        -1.16616
C         34.04045        30.85177        -0.49861
C         35.32948        32.99478        -0.96985
C         34.04109        33.75179        -1.08216
C         35.29154        35.94988        -0.45504
C         34.04539        35.26789        -0.93877
C         35.34002        37.28879        -0.18788
C         34.09125        38.17756        -0.19637
C         35.46076        40.11307         0.70587
C         34.26639        39.39837         0.72677
C         35.57293        41.44684         1.22110
C         34.29628        42.16128         1.49869
C         35.61616        44.26830         2.09020
C         34.30617        43.66446         1.68927
C         35.81321        45.74814         1.85151
C         37.87667        27.17778        -0.13031
C         36.52992        26.69446         0.30572
C         37.74104        28.63116        -0.56715
C         36.54187        29.20800        -0.91005
C         37.77740        31.08917        -2.03305
C         36.44366        30.59222        -1.47091
C         37.83332        33.06478        -0.52891
C         36.48006        33.67513        -0.73747
C         37.77730        35.87420        -0.75480
C         36.53851        35.11463        -0.22626
C         37.89662        37.28901        -0.28407
C         36.62834        37.99771         0.06243
C         38.00309        40.10351         0.26837
C         36.63747        39.51470        -0.04292
C         38.11985        41.45797         0.97682
C         36.78340        42.20489         1.14145
C         38.14358        44.26913         1.54674
C         36.83505        43.56382         1.45486
C         38.23642        45.75541         1.88941
C         36.89328        46.34028         1.90069
C         40.33488        26.88797         3.60509
C         39.19688        27.44649         3.35018
C         40.24373        28.45392         1.39250
C         39.04513        28.20963         2.19582
C         40.21819        29.06950         0.14761
C         39.10011        29.25053        -0.87526
C         40.20294        31.44009        -1.34738
C         39.03940        30.70216        -1.32698
C         40.20759        32.90111        -1.66734
C         38.98062        33.68056        -1.31629
C         40.36032        35.85293        -1.21587
C         39.02532        35.18183        -1.21322
C         40.34777        37.35259        -1.11407
C         39.09815        38.08862        -0.70160
C         40.48655        40.12953        -0.05361
C         39.14492        39.46754        -0.12823
C         40.50760        41.61455         0.16854
C         39.15094        42.31620         0.17673
C         40.59037        44.47049         0.62868
C         39.27487        43.75020         0.70272
C         40.81364        45.81622         1.27765
C         39.49960        46.54511         1.70511
C         40.21229        48.63220         0.56832
C         39.51013        47.96675         1.38474
C         42.86204        26.36075         3.19931
C         41.59620        26.99034         3.12638
C         42.79956        28.02886         1.04652
C         41.58350        27.99606         1.94320
C         42.66060        28.62934        -0.34830
C         41.47349        29.56962        -0.41315
C         42.76227        31.36134        -1.65667
C         41.47330        30.78374        -1.05215
C         42.79766        32.90609        -1.65531
C         41.49930        33.67138        -1.72932
C         42.77079        35.83707        -1.92866
C         41.51726        35.14150        -1.41374
C         42.82398        37.35588        -1.64549
C         41.70261        37.96620        -0.78982
C         42.79553        40.23463        -0.92913
C         41.68979        39.48571        -0.68206
C         42.75106        41.75317        -1.06042
C         41.69480        42.42582        -0.22060
C         42.94230        44.56075        -0.36098
C         41.77519        43.76511         0.04544
C         42.97622        45.97042        -0.03203
C         42.01611        46.52462         0.80948
C         42.46498        48.73980        -0.77614
C         41.57810        48.65535         0.32838
C         43.89831        26.41983         2.51221
C         45.22280        27.32048         0.36519
C         43.98743        27.06417         1.19007
C         45.27399        28.60776        -0.49166
C         43.97650        29.31702        -0.74383
C         44.78569        31.60523        -0.21414
C         43.91365        30.80121        -0.87206
C         45.00345        33.02284        -0.50830
C         44.00985        33.66326        -1.19250
C         45.33187        35.87067        -1.13074
C         44.17951        35.05079        -1.80091
C         45.34797        37.37203        -1.20241
C         44.11110        38.12707        -1.64164
C         45.29281        40.31063        -0.92748
C         44.06919        39.66995        -1.52767
C         45.29172        41.75580        -1.02248
C         44.09814        42.45617        -0.94607
C         45.27088        44.65582        -1.30927
C         44.07282        43.89645        -0.86999
C         45.22706        46.18264        -1.23357
C         44.13823        46.88207        -0.46466
C         43.44572        48.06943        -1.14066
C         47.77411        27.14845         0.44396
C         46.58937        26.88941         0.65147
C         48.49393        28.10433        -0.35408
C         46.59907        29.33575        -0.58728
C         47.85563        31.55846         0.08924
C         46.79209        30.57346        -0.02692
C         47.42657        32.95128         0.61533
C         46.41393        33.65316        -0.39149
C         47.17682        35.95561         0.74853
C         46.21653        35.16156        -0.10668
C         47.21885        37.48653         0.64038
C         46.22659        38.15482        -0.25466
C         47.69953        40.24511        -0.29261
C         46.40209        39.59531        -0.57735
C         47.82861        41.71658        -0.60398
C         46.60538        42.43081        -1.14962
C         47.83940        44.63148        -0.84163
C         46.60968        43.92212        -1.32768
C         47.63629        46.02321        -0.95316
C         46.60246        46.70300        -1.10001
C         50.71610        28.92041         0.71232
C         49.59591        28.88154        -0.17078
C         50.23637        31.93270         0.64582
C         49.19707        31.21303        -0.05371
C         49.91094        33.28761         1.07457
C         48.63409        33.84651         0.90776
C         49.52392        36.09268         1.79518
C         48.30965        35.22274         1.51170
C         49.40536        37.56653         1.94151
C         48.43965        38.27536         1.04772
C         49.85532        40.38605         1.00848
C         48.63010        39.58209         0.66188
C         49.87215        41.88828         0.84722
C         48.87516        42.52802         0.07710
C         49.96978        44.56988         0.48203
C         48.86109        43.96012        -0.15079
C         51.50344        29.87340         0.88696
C         52.38935        32.14208         1.68674
C         51.46119        31.28127         1.06259
C         52.09092        33.33729         1.97129
C         50.92421        34.06791         1.77668
C         51.67674        36.27763         2.73654
C         50.69768        35.42346         2.13388
C         51.74092        37.51063         2.81565
C         50.59280        38.37291         2.50069
C         51.68072        40.71560         2.66333
C         50.86268        39.72583         1.95611
C         51.79868        41.89645         2.28438
C         50.92134        42.67355         1.48226
C         50.85897        44.05220         1.20039
O         45.63858        30.97948         0.69943
O         51.08971        39.73198         0.53338
O         40.48856        46.10958         2.66625
O         45.87490        35.49792         1.25839
O         38.90496        26.56254        -0.13363
O         34.08175        43.12793         0.37726
O         45.95804        38.02601         1.18467
O         47.58834        28.64967        -1.32164
O         49.52864        30.12191        -0.89212
O         46.82268        43.04470        -2.46765
O         38.04165        32.37033         0.46230
O         32.76706        36.98582         1.55543
O         38.57882        41.29158         2.27760
O         39.50865        38.01485        -2.10147
O         44.96991        45.53772        -2.46799
O         42.63207        29.01753         2.10094
O         44.26039        26.30979        -0.00091
O         42.28286        33.38223        -2.92567
O         42.52870        35.75873        -3.41605
O         49.44279        38.16009         3.31301
O         37.50865        37.47743         1.10452
O         39.53896        44.66101        -0.42247
O         46.10678        36.58625        -2.15814
O         34.21594        28.66105        -1.66962
O         43.37615        37.89570        -2.87395
O         33.24498        33.14818        -2.13919
O         33.38780        36.03396        -1.99775
O         36.39788        39.75981        -1.51005
O         32.73459        41.55459         3.38383
O         37.77798        31.54773        -3.15917
O         42.24938        47.83303         1.33823
O         40.77342        40.71050         1.27982
O         48.39050        40.71844        -1.51225
O         38.04548        35.74465        -2.16468
O         38.41294        44.74515         2.91650
O         31.05951        34.48041        -1.82788
O         35.42077        30.87058        -2.46743
O         44.64160        28.56284        -1.81107
O         39.24367        33.29746        -2.68571
O         44.11758        40.19143        -2.85485
O         33.84561        38.68907        -1.51662
H         34.65011        39.18364        -1.81731
O         42.84503        30.89578        -3.00940
H         42.46386        31.59729        -3.58790
O         39.56864        28.50488        -2.03589
H         39.09941        28.82835        -2.83386
O         41.33811        36.50143        -3.72056
H         41.68878        37.36520        -4.05471
O         47.01453        33.53450        -1.68770
H         46.39179        33.88880        -2.36936
O         36.65229        34.97123         1.20848
H         37.30741        34.27292         1.42479
O         42.35665        27.57312        -1.26007
H         43.04708        27.56576        -1.96448
O         46.71974        32.83183         1.86357
H         47.33622        32.50132         2.54953
O         33.51332        39.17682         2.94930
H         33.16886        39.73695         3.68478
O         44.66636        34.75814        -3.11979
H         44.80856        35.61059        -3.58973
O         38.68472        42.37789        -1.18491
H         39.04314        43.20733        -1.58469
O         42.03758        37.45883         0.54336
H         41.65682        38.06028         1.21990
O         42.32658        41.97036        -2.43320
H         42.94893        41.39594        -2.98138
O         36.18532        41.17908        -1.68311
H         37.11109        41.55573        -1.71011
O         35.73258        44.05432         3.48971
H         36.63669        44.33851         3.76852
O         37.89825        28.86276         1.89265
H         37.18692        28.56934         2.49755
O         44.78785        47.40349         0.68142
H         44.11471        47.85731         1.24425
O         47.80428        34.96245         2.85284
H         46.82481        34.85240         2.77143
