         234
 CSIRO Nanostructure Databank - Neutral Graphene Oxide Data Set
C          1.30704         2.22371        -1.28192
C          1.23192         3.57518        -0.90885
C          2.53778         1.62978        -1.50993
C          2.39150         4.34089        -0.74807
C          1.04518         6.45019        -0.07058
C          1.01016         7.67488         0.47921
C          2.32360         5.79369        -0.45239
C          2.23798         8.37063         0.95631
C          1.04514        10.48639         1.73101
C          1.08847        11.79000         2.09632
C          2.19978         9.86719         1.07556
C          2.28868        12.56835         1.90891
C          1.23541        15.76180         1.40713
C          1.26734        16.89995         0.59519
C          2.32414        14.89759         1.46348
C          2.44617        17.24161        -0.07916
C          2.48641        18.46058        -0.84196
C          3.73658         2.36554        -1.33517
C          3.66974         3.73592        -0.92157
C          4.99315         1.73217        -1.55167
C          4.89263         4.44414        -0.63049
C          3.61063         6.48583        -0.08581
C          3.56438         7.73985         0.72174
C          4.88300         5.74432        -0.09564
C          4.83601         8.50716         0.88816
C          3.52042        10.64905         1.02335
C          3.48647        12.06996         1.47535
C          4.78976         9.86469         1.10526
C          4.74527        12.94824         1.56611
C          3.55905        15.13799         0.74758
C          3.61607        16.41625         0.02888
C          4.68139        14.29333         0.79623
C          4.81523        16.89147        -0.55538
C          3.64266        18.90260        -1.41052
C          4.85817        18.15238        -1.25230
C          6.19719         2.41658        -1.38900
C          6.15938         3.79884        -0.92388
C          7.45239         1.76002        -1.53650
C          7.32811         4.51258        -0.77161
C          6.06835         6.40893         0.37459
C          6.06335         7.71464         0.89648
C          7.34576         5.69755         0.12124
C          7.31439         8.36318         1.37975
C          5.95137        10.63707         1.70189
C          5.94816        12.06186         1.15962
C          7.29878         9.87638         1.60487
C          7.24743        12.69692         0.84057
C          5.97629        14.90289         0.40120
C          6.02693        16.14424        -0.42058
C          7.25970        14.18164         0.64033
C          7.21121        16.63237        -0.97410
C          6.07156        18.66714        -1.71116
C          7.28570        17.94798        -1.55985
C          8.66265         2.45063        -1.40769
C          8.60267         3.91759        -1.21510
C          9.92712         1.83965        -1.52655
C          9.88263         4.68765        -1.04417
C          8.64922         6.33905         0.46204
C          8.68408         7.62909         1.29262
C          9.82046         6.11089        -0.49605
C          9.86196         8.52466         0.97093
C          8.56421        10.61288         1.34822
C          8.54358        11.99339         1.04785
C          9.81744         9.91260         1.22419
C          9.74672        12.70562         0.88885
C          8.49088        14.62043        -0.09197
C          8.45373        15.82963        -0.95336
C          9.75576        14.18249         0.60384
C          9.75271        16.45461        -1.38410
C          8.52595        18.53991        -1.90335
C          9.77824        17.88935        -1.74639
C         11.14035         2.53908        -1.31359
C         11.14375         3.92704        -0.97119
C         12.39562         1.85535        -1.37849
C         12.34537         4.59137        -0.66173
C         11.12817         6.60519         0.07222
C         11.09610         7.91478         0.62470
C         12.34131         5.96334        -0.19520
C         12.33233         8.62880         0.75186
C         11.05126        10.65456         1.21073
C         11.00243        12.09099         1.13321
C         12.30469        10.01000         1.10076
C         12.20205        12.83515         1.11606
C         11.03014        14.64304        -0.04173
C         11.05099        15.81847        -0.90852
C         12.23612        14.11657         0.46151
C         12.28743        16.58763        -1.02982
C         11.01411        18.49761        -1.97483
C         12.27199        17.85441        -1.67982
C         13.59638         2.52394        -1.19022
C         13.59045         3.92617        -0.84637
C         14.86595         1.82798        -1.24523
C         14.80529         4.64064        -0.71676
C         13.58801         6.64667         0.02826
C         13.55636         7.99888         0.43881
C         14.83126         5.98036        -0.27036
C         14.80026         8.78436         0.54982
C         13.54300        10.73762         1.29776
C         13.41256        12.17254         1.73847
C         14.77639        10.12289         1.18997
C         14.69146        12.96779         1.53692
C         13.46681        14.78204         0.18167
C         13.49982        15.99325        -0.58226
C         14.69396        14.30714         0.84723
C         14.73355        16.58812        -0.94852
C         13.51398        18.47292        -1.94602
C         14.74285        17.82378        -1.64763
C         16.05956         2.50555        -1.21881
C         16.02428         4.02142        -1.35580
C         17.31452         1.80043        -1.22561
C         17.33260         4.70609        -0.96424
C         16.09089         6.63945        -0.01657
C         16.09902         8.06992         0.39121
C         17.30992         5.99845        -0.23652
C         17.28698         8.58236         1.18738
C         16.05451        10.77505         1.51264
C         16.00321        12.24840         1.77987
C         17.26146        10.09047         1.43928
C         17.29302        13.04514         1.66939
C         16.00004        14.95570         0.47773
C         15.98387        15.76079        -0.80736
C         17.30582        14.35941         0.92473
C         17.26463        16.51841        -1.01517
C         15.99598        18.38998        -2.03093
C         17.22725        17.76852        -1.72529
C         18.53384         2.43029        -1.08991
C         18.59672         3.90303        -0.93122
C         19.78210         1.71954        -1.03052
C         19.79194         4.49186        -0.29902
C         18.56078         6.58102         0.17559
C         18.57185         8.02639         0.56869
C         19.75264         5.85058         0.14527
C         19.87942         8.67700         0.96459
C         18.56608        10.72087         1.79843
C         18.59986        12.30843         1.80278
C         19.82890         9.96224         1.68187
C         19.82592        13.05879         1.48139
C         18.54301        14.75523         0.18693
C         18.47897        15.89840        -0.66045
C         19.79675        14.19856         0.61076
C         19.72286        16.45838        -1.23287
C         18.44709        18.41599        -2.06713
C         19.68941        17.81436        -1.81805
C         20.95366         2.36700        -0.72381
C         20.98026         3.74832        -0.32970
C         22.23620         4.42903        -0.07747
C         20.98123         6.33405         0.88767
C         21.07173         7.82615         1.10848
C         22.25258         5.70103         0.37848
C         22.16408         8.31027         1.79903
C         21.01308        10.39195         2.30905
C         21.04754        12.68964         2.07690
C         22.17822         9.61408         2.33277
C         22.23267        13.38395         1.83212
C         21.03957        14.84244         0.28857
C         21.07114        15.92856        -0.72265
C         22.21984        14.44294         0.91920
C         22.21224        16.83883        -0.84134
C         20.90179        18.46887        -2.10153
C         22.12896        17.98983        -1.59164
O         14.56422        14.19895         2.31060
O          3.05044         6.62341        -1.43935
O          2.68571        10.45984        -0.17205
O          8.34664        14.45905        -1.51672
O          7.28263         8.93883         2.73173
O         18.23858         4.70980        -2.12868
O         10.48148        15.60231        -2.29421
O          2.89181         7.62166         2.04123
O         20.50630        15.50545        -2.01441
O         16.60864        12.88609         2.94441
O          9.24131         4.62190        -2.37001
O         18.58750        11.52768         3.01165
O         15.62188         8.90023        -0.70294
O         21.09907        11.61951         2.98673
O          6.81295        15.04932         1.69271
O          2.16991        13.87585         2.38235
O          8.19580         5.24123         1.30162
O         16.70569        15.52828         1.60109
O          6.38076        12.09813        -0.21975
O         19.25882         8.82956        -0.41985
O          4.92521        13.33026         2.94375
H          5.11957        12.50977         3.45625
O         15.81960         4.26963        -2.77980
H         16.71820         4.38086        -3.17295
O         20.80428         5.79267         2.25904
H         20.84479         4.81435         2.18988
O          9.00515         7.20525         2.64248
H          8.50307         6.37468         2.81142
O          9.53749         7.01796        -1.59857
H          9.34391         6.45481        -2.38846
O          5.63484        10.75447         3.11754
H          5.97455         9.92723         3.54262
O         15.91755        14.72822        -1.85996
H         15.91717        15.18437        -2.72838
O         13.17764        12.13882         3.17869
H         13.49168        13.00171         3.53340
O          9.71309        14.88246         1.89826
H         10.43817        14.52643         2.45548
O         17.16189         7.94314         2.49165
H         17.73022         8.41965         3.13347
H          0.38169         1.64632        -1.41384
H          0.24293         4.03145        -0.76832
H          2.59719         0.57803        -1.82425
H          0.10083         5.95887        -0.34689
H          0.04181         8.16718         0.65512
H          0.18158         9.85861         1.99303
H          0.23680        12.26845         2.59803
H          0.34388        15.52807         2.00314
H          0.38548        17.55109         0.51963
H          1.55870        19.04390        -0.93407
H          5.00745         0.67402        -1.85228
H          3.67023        19.84677        -1.97277
H          7.46356         0.68088        -1.75046
H          6.09176        19.66083        -2.18249
H          9.97495         0.76447        -1.75627
H          8.51811        19.57536        -2.27595
H         12.40153         0.78063        -1.61410
H         11.03890        19.53748        -2.33338
H         14.85786         0.72771        -1.29221
H         13.53502        19.45235        -2.44674
H         17.28499         0.70100        -1.28734
H         16.00509        19.35092        -2.56606
H         19.78573         0.64189        -1.24922
H         18.41217        19.40979        -2.53804
H         21.90216         1.81043        -0.72724
H         23.17045         3.91442        -0.34728
H         23.20780         6.22853         0.51018
H         23.03437         7.66182         1.97036
H         23.06548         9.99159         2.85564
H         23.16206        13.08136         2.33002
H         23.16544        14.95283         0.69296
H         23.14872        16.61239        -0.31340
H         20.87596        19.44073        -2.61498
H         23.02711        18.61119        -1.71934
