         424
 CSIRO Nanostructure Databank - Neutral Graphene Oxide Data Set
C          1.42658         3.38009        -1.18799
C          0.20821         4.00656        -0.86261
C          1.22856         6.25001        -0.86236
C          0.13972         5.35244        -0.54790
C          1.25076         7.63426        -0.23729
C          0.00616         8.42145        -0.55780
C          1.21141        10.53364        -0.27755
C          0.00373         9.77385        -0.52109
C          1.19608        11.94108        -0.13350
C         -0.02260        12.68995        -0.18462
C          1.17421        14.79478         0.14453
C         -0.03086        14.05552        -0.07609
C          1.14870        16.25759         0.22810
C         -0.04758        16.97726         0.19562
C          1.12759        19.11333         0.13113
C         -0.05494        18.38081         0.15044
C          1.07863        20.60923        -0.08415
C         -0.00660        21.32334         0.68732
C          1.20038        23.43826         0.42773
C          0.04126        22.66596         0.84100
C          1.19873        24.85976         0.36543
C          0.03488        25.63984         0.65921
C          1.13808        27.74760         0.07481
C          0.03029        27.01918         0.57605
C          1.16174        29.17513        -0.01130
C         -0.03203        29.92953         0.16708
C          1.18817        32.04312         0.12334
C         -0.02354        31.30561         0.21210
C          1.20740        33.48618         0.25934
C          0.02108        34.23639         0.49236
C          1.27522        36.32222         0.58662
C          0.05123        35.60862         0.64634
C          1.32477        37.74494         0.75147
C          3.88688         3.45351        -1.00177
C          2.63745         4.09334        -1.15461
C          3.83290         6.30841        -0.90594
C          2.61240         5.55973        -1.17446
C          3.77266         7.80997        -1.03127
C          2.49709         8.44125        -0.52063
C          3.70877        10.56776        -0.18310
C          2.46702         9.82082        -0.33597
C          3.66305        11.96632         0.08165
C          2.42481        12.66931         0.07110
C          3.62386        14.83026         0.66261
C          2.38233        14.09219         0.22808
C          3.62021        16.30429         0.34222
C          2.38429        16.99242         0.25971
C          3.61104        19.14391         0.16430
C          2.37227        18.42454         0.18215
C          3.60979        20.59070         0.11466
C          2.40512        21.30245         0.11154
C          3.63908        23.44032         0.01448
C          2.40711        22.72785         0.15836
C          3.62133        24.86327        -0.13602
C          2.38991        25.54203        -0.03501
C          3.63434        27.74276        -0.57943
C          2.30504        26.97526        -0.34882
C          3.62878        29.19815        -0.37147
C          2.39666        29.89263        -0.19465
C          3.63982        32.03922        -0.17982
C          2.39902        31.32606        -0.08404
C          3.66299        33.46303        -0.06155
C          2.44348        34.18217         0.18014
C          3.71900        36.31191         0.30077
C          2.47920        35.60267         0.35576
C          3.74796        37.73416         0.44383
C          2.51159        38.42562         0.67923
C          6.31216         3.53028        -0.63814
C          5.06902         4.18687        -0.81561
C          6.29259         6.36330        -0.66685
C          5.03859         5.63657        -0.76655
C          6.23535         7.77650        -0.49356
C          5.01493         8.48826        -0.50046
C          6.13407        10.54636         0.44177
C          4.94309         9.85857        -0.17167
C          6.12249        12.02996         0.23703
C          4.91756        12.71167         0.20237
C          6.10885        14.88041         0.33752
C          4.90388        14.14372         0.28646
C          6.08968        16.31139         0.40149
C          4.83685        17.01451         0.32952
C          6.08473        19.16218         0.25845
C          4.83612        18.44606         0.23761
C          6.08557        20.58582         0.18521
C          4.85728        21.30295         0.11388
C          6.11075        23.43759        -0.06388
C          4.86508        22.72323         0.01344
C          6.10275        24.86556        -0.24520
C          4.87232        25.57784        -0.30870
C          6.10960        27.71468        -0.44068
C          4.88769        26.99417        -0.42862
C          6.10342        29.15373        -0.50097
C          4.86426        29.88381        -0.41425
C          6.07081        32.04469        -0.49000
C          4.85702        31.32479        -0.36761
C          6.09437        33.43915        -0.35146
C          4.90121        34.16184        -0.11869
C          6.13537        36.33232        -0.01790
C          4.93502        35.60712         0.07006
C          6.17589        37.75107         0.07637
C          4.96790        38.43300         0.32752
C          8.70317         3.41166        -0.25439
C          7.53500         4.21013        -0.60557
C          8.76402         6.42371        -0.62028
C          7.53825         5.66064        -0.71892
C          8.75495         7.80127        -0.23516
C          7.50832         8.57741        -0.54163
C          8.62494        10.59017         0.38171
C          7.46114         9.92268         0.11878
C          8.64924        12.02738         0.54237
C          7.42299        12.74826         0.03606
C          8.55346        14.90061         0.58911
C          7.37023        14.20354         0.38752
C          8.55172        16.32339         0.52423
C          7.31520        17.02589         0.41899
C          8.55809        19.16764         0.40027
C          7.31398        18.45807         0.35447
C          8.54093        20.58535         0.34049
C          7.32796        21.29859         0.20374
C          8.58221        23.43013        -0.12486
C          7.32497        22.73025         0.04965
C          8.57340        24.86023        -0.35277
C          7.34518        25.57472        -0.36057
C          8.58844        27.71025        -0.57490
C          7.34755        27.00325        -0.45855
C          8.57803        29.15621        -0.69010
C          7.33571        29.84095        -0.64794
C          8.62933        32.04965        -0.83578
C          7.30577        31.30228        -0.82463
C          8.66269        33.48743        -0.55218
C          7.39706        34.14966        -0.05597
C          8.68372        36.30618         0.01410
C          7.37093        35.61685        -0.47447
C          8.65106        37.80813        -0.19841
C          7.43066        38.46054        -0.09567
C         11.25702         3.32183        -0.07269
C          9.98946         3.74135        -0.60718
C         11.23048         6.38537        -0.25956
C         10.03485         5.85532        -0.80352
C         11.18453         7.75377         0.16189
C          9.92770         8.44263         0.12782
C         11.14424        10.59662         0.62114
C          9.86887         9.81578         0.73490
C         11.11226        12.00463         0.76328
C          9.82870        12.70755         0.74731
C         11.07081        14.92382         0.70704
C          9.80230        14.19060         1.06037
C         11.05362        16.27680         0.47343
C          9.79374        17.03444         0.49039
C         11.10779        19.15874         0.57422
C          9.79174        18.42563         0.45246
C         11.00170        20.53288        -0.10391
C          9.83436        21.34787         0.48502
C         11.04240        23.36512        -0.59715
C          9.77807        22.73589        -0.08204
C         11.06033        24.85455        -0.41545
C          9.81608        25.56221        -0.43075
C         11.08870        27.66824        -0.69581
C          9.79839        26.98264        -0.54444
C         11.09598        29.16955        -0.76554
C          9.81209        29.88856        -0.72370
C         11.09771        32.00794        -0.53407
C          9.86966        31.28752        -0.68695
C         11.11541        33.42106        -0.50578
C          9.86790        34.14952        -0.54298
C         11.16840        36.31501        -0.28586
C          9.89294        35.65212        -0.70477
C         11.14175        37.75257        -0.20872
C          9.91821        38.45775        -0.24136
C         13.60533         3.42137         0.52529
C         12.37199         4.13693         0.01021
C         13.61438         6.29748         0.26260
C         12.41434         5.59480        -0.06807
C         13.61561         7.72329         0.44714
C         12.38333         8.43975         0.47384
C         13.57615        10.60617         0.75821
C         12.36707         9.88979         0.63976
C         13.56279        12.01947         0.74834
C         12.33241        12.71946         0.76801
C         13.57548        14.86671         0.38737
C         12.36677        14.21342         1.01369
C         13.49746        16.21433        -0.00235
C         12.29557        16.97327         0.14919
C         13.48054        19.11875        -0.16984
C         12.30086        18.38490         0.05159
C         13.52294        20.54523        -0.05983
C         12.30568        21.28377        -0.04045
C         13.53917        23.38121        -0.07993
C         12.30973        22.66594        -0.17263
C         13.53255        24.81586        -0.13479
C         12.30452        25.52334        -0.30690
C         13.51400        27.65918        -0.12510
C         12.33467        26.95866        -0.32226
C         13.46743        29.12337         0.21440
C         12.31673        29.89080        -0.37262
C         13.55472        31.99155        -0.04936
C         12.32275        31.27103        -0.32097
C         13.55011        33.42165        -0.07806
C         12.34667        34.13407        -0.28310
C         13.60866        36.28588        -0.06995
C         12.34734        35.58361        -0.18950
C         13.60101        37.74337        -0.05732
C         12.39502        38.43425        -0.10546
C         16.08355         3.47972         0.25856
C         14.89254         4.17085         0.32332
C         16.09059         6.31248         0.46358
C         14.87273         5.60109         0.35685
C         16.07723         7.74857         0.61067
C         14.84920         8.42124         0.64177
C         16.10559        10.62182         0.80453
C         14.83469         9.86068         1.10539
C         16.05454        12.01560         0.67461
C         14.82227        12.74574         0.63830
C         16.02544        14.80858        -0.07948
C         14.79677        14.13577         0.33834
C         15.99688        16.20632        -0.43736
C         14.70136        16.88343        -0.52431
C         16.00336        19.11431        -0.46660
C         14.70649        18.42450        -0.57993
C         16.02349        20.54357        -0.24312
C         14.76641        21.25459        -0.08316
C         16.03760        23.38294         0.32838
C         14.75369        22.65753         0.02813
C         16.00222        24.85242         0.00796
C         14.76694        25.54300        -0.05510
C         15.99062        27.69646         0.04828
C         14.76233        26.96994        -0.03257
C         15.99077        29.13556         0.13248
C         14.77637        29.85137         0.11111
C         15.98675        31.97873         0.61315
C         14.75027        31.26547         0.14460
C         15.98775        33.45350         0.32142
C         14.81073        34.13878         0.07848
C         16.10424        36.30595        -0.26461
C         14.80420        35.58394        -0.01788
C         16.06631        37.78052         0.06429
C         14.85313        38.44313         0.05361
C         18.56106         3.46648         0.23614
C         17.32682         4.17040         0.28963
C         18.56414         6.25840         0.64538
C         17.32834         5.58538         0.45594
C         18.56084         7.69353         0.97619
C         17.31482         8.48489         0.79900
C         18.65588        10.61798         1.15682
C         17.33913         9.88213         0.84815
C         18.63630        12.09227         0.69305
C         17.31498        12.78344         0.51604
C         18.43610        14.78088        -0.61444
C         17.22158        14.11165        -0.12975
C         18.44581        16.24579        -0.71665
C         17.17738        16.94160        -0.63297
C         18.51951        19.06024        -0.43113
C         17.17409        18.38290        -0.59686
C         18.47590        20.56308        -0.60838
C         17.23312        21.25621        -0.35363
C         18.42568        23.40990        -0.41757
C         17.26127        22.69203        -0.22385
C         18.45825        24.84443        -0.21610
C         17.21688        25.56186        -0.06299
C         18.46953        27.69964        -0.06658
C         17.22161        26.99251        -0.02545
C         18.47548        29.13140        -0.01399
C         17.24709        29.84752         0.13198
C         18.48187        31.95932         0.16460
C         17.26867        31.25798         0.25901
C         18.49729        33.47424         0.07820
C         17.26312        34.16759         0.68906
C         18.51853        36.28960         0.35786
C         17.31863        35.61286         0.27845
C         18.52074        37.74778         0.26580
C         17.31743        38.44952         0.19913
C         19.75581         4.14361         0.34012
C         21.04025         6.25704         0.55806
C         19.77748         5.54962         0.55342
C         21.10727         7.60667         0.65283
C         19.91272         8.41071         0.96613
C         20.88419        10.45591        -0.02176
C         19.86974         9.85635         0.65042
C         20.87190        11.86185        -0.34424
C         19.82436        12.65536        -0.00798
C         20.96291        14.91789        -0.39825
C         19.78591        14.06375        -0.49929
C         20.89217        16.24603        -0.72549
C         19.64549        16.91561        -0.93685
C         20.85306        19.15506        -1.34841
C         19.55619        18.38198        -1.33151
C         20.86060        20.49229        -1.15192
C         19.65105        21.24137        -0.84448
C         20.90908        23.43842        -0.52909
C         19.65544        22.74978        -1.00774
C         20.90583        24.75385        -0.23166
C         19.67874        25.53934        -0.22043
C         20.91088        27.72003        -0.21383
C         19.69359        26.97731        -0.15025
C         20.91960        29.09451        -0.19579
C         19.70949        29.84670        -0.09208
C         20.90692        32.06989        -0.28258
C         19.69909        31.27658        -0.05889
C         20.96267        33.39566        -0.02240
C         19.79483        34.07275         0.67324
C         20.93553        36.31726         0.70854
C         19.77677        35.59263         0.58501
C         20.93345        37.74483         0.61539
C         19.77227        38.43689         0.39595
O         19.07300        14.13041        -1.78354
O          8.83365        36.14864         1.39870
O          7.90322        31.74547        -2.09506
O          2.79496        27.30334        -1.69304
O         11.25408        28.35307        -2.00275
O         14.52112        17.61280        -1.78277
O         18.12579        12.94748         1.77708
O         19.27004         8.02386         2.21717
O         10.12102         4.72231        -1.61435
O          1.75620         6.16571        -2.20831
O         10.06847        21.54772         1.92854
H          9.31001        22.06116         2.27967
O         13.15873        29.11137         1.67629
H         13.38245        30.00029         2.02785
O         17.34575        34.15100         2.13754
H         17.08655        33.24645         2.44166
O         14.80603         9.76324         2.58398
H         15.66614         9.38151         2.86549
O         18.76125        10.62472         2.59907
H         18.36359        11.47445         2.90542
O         13.68505         2.09855        -0.01516
H         13.74013         2.16939        -0.99009
O          5.99343        10.35821         1.90914
H          5.13902        10.76521         2.16983
O          1.23330         7.37764         1.21448
H          1.18418         8.24765         1.66465
O          9.71597         9.56363         2.18531
H          9.73095        10.43306         2.63903
O         10.69465        20.29926        -1.49695
H         10.78767        21.16375        -1.96899
O         18.94706        18.81749         0.94166
H         18.32363        19.28125         1.53900
O         18.45875        33.79110        -1.33267
H         19.23807        33.37630        -1.75933
O          7.65282         8.89611        -1.98463
H          6.78321         9.22025        -2.30596
O          9.73049        14.24374         2.54454
H          8.85359        13.89351         2.81308
O          3.77233         8.08210        -2.48638
H          3.00938         7.57140        -2.85176
O          9.84321        35.90512        -2.13735
H          9.00798        35.50053        -2.47871
O         10.99500        23.11971        -2.07896
H         10.28368        23.69125        -2.44298
O          7.60791        12.73446        -1.44113
H          6.86942        13.24940        -1.83184
O          0.73819        20.77542        -1.50811
H          0.73766        21.73852        -1.69553
O         12.54354        14.36656         2.46809
H         11.65039        14.26688         2.87619
O         11.39954        19.29232         1.98967
H         10.84645        20.02558         2.35340
O          7.46941        34.02382         1.38593
H          8.05136        34.78196         1.71564
O         15.90688        31.86578         2.11219
H         15.07234        32.30684         2.38433
O          7.28854        35.62796        -1.92733
H          7.02723        36.52974        -2.21060
O         19.92164        33.73149         2.07382
H         19.85865        32.75636         2.15047
O         19.59814        22.98652        -2.45993
H         18.81961        22.50002        -2.80542
O         16.17360        23.31102         1.80272
H         16.96350        23.84008         2.04557
O         19.03682        18.42237        -2.68937
H         19.59927        17.84946        -3.25060
O         16.26938        36.26553        -1.73762
H         15.52190        36.77159        -2.12282
O          3.59323        14.76886         2.15228
H          2.78904        15.25323         2.43893
H          1.45816         2.28365        -1.26426
H         -0.67552         3.37336        -0.69641
H         -0.71367         5.73827         0.02771
H         -0.92796         7.87200        -0.74521
H         -0.94069        10.30573        -0.70121
H         -0.97805        12.17006        -0.33249
H         -0.99089        14.58275        -0.15018
H         -1.01379        16.45611         0.18161
H         -1.02193        18.89884         0.08860
H         -0.89403        20.76526         1.01982
H         -0.80076        23.18568         1.32062
H         -0.87742        25.13382         1.00199
H         -0.87689        27.55618         0.88560
H         -0.99398        29.40667         0.25340
H         -0.97969        31.83017         0.33825
H         -0.94855        33.72454         0.55427
H         -0.88323        36.16078         0.82324
H          0.38506        38.28714         0.93270
H          3.93192         2.35427        -1.01402
H          2.53214        39.51875         0.79935
H          6.31529         2.43237        -0.56373
H          4.97105        39.52924         0.42346
H          8.52873         2.53145         0.38260
H          7.39633        39.56216        -0.11215
H         11.36706         2.28460         0.28325
H          9.94938        39.56004        -0.23593
H         13.48132         3.29272         1.64013
H         12.40263        39.53423        -0.06596
H         16.07093         2.38058         0.22327
H         14.83137        39.54050         0.14213
H         18.54798         2.37506         0.10526
H         17.32519        39.54543         0.30420
H         20.70980         3.60081         0.27534
H         21.95582         5.67193         0.38603
H         22.07711         8.11303         0.54513
H         21.75604         9.87184        -0.34787
H         21.72477        12.27883        -0.89750
H         21.90272        14.48764        -0.02326
H         21.81288        16.84637        -0.69815
H         21.77169        18.65609        -1.69345
H         21.79978        21.04829        -1.28685
H         21.85605        22.88047        -0.50544
H         21.84987        25.24250         0.04992
H         21.86800        27.18730        -0.29383
H         21.88254        29.62036        -0.24905
H         21.79100        31.56624        -0.70087
H         21.89700        33.94859        -0.20307
H         21.89382        35.80582         0.87850
H         21.88613        38.28326         0.72055
H         19.78228        39.53446         0.32505
