         477
 CSIRO Nanostructure Databank - Neutral Graphene Oxide Data Set
C         36.68862        51.25252        -0.15969
C         35.84832        52.23691         0.35229
C         37.70163        53.79026         0.37701
C         36.36343        53.51129         0.62624
C         40.09758        48.65667        -0.96935
C         40.02641        50.08514        -0.71697
C         38.05169        51.52369        -0.37376
C         39.97329        53.18439        -0.38369
C         38.58987        52.80879        -0.13324
C         40.20642        54.51383        -0.74574
C         42.43460        48.55840        -0.25460
C         41.21089        47.92192        -0.76009
C         42.39910        50.07027        -0.10984
C         41.13479        50.83683        -0.39526
C         42.46884        53.00207        -0.06201
C         41.11926        52.30366         0.08019
C         42.57469        54.38480        -0.15822
C         41.44802        55.13118        -0.60988
C         44.95215        45.89575        -1.42612
C         43.80070        46.48050        -1.05393
C         45.02028        48.63125        -0.44560
C         43.75583        47.83399        -0.43358
C         45.00634        50.09787        -0.22202
C         43.68445        50.82960        -0.42723
C         45.03206        52.92211        -0.04416
C         43.69735        52.19716         0.28206
C         45.02739        54.37290         0.33774
C         43.82639        55.08491         0.19285
C         45.02492        57.12156         0.76093
C         43.83887        56.47322         0.45559
C         47.56398        44.47143        -1.46318
C         47.53601        45.86620        -1.34702
C         46.25668        46.61165        -1.44932
C         47.53326        48.71504        -0.66140
C         46.26735        48.05586        -1.03935
C         47.48946        50.05477        -0.18289
C         46.20239        50.73227        -0.00705
C         47.51324        52.89853         0.37703
C         46.21812        52.14230         0.54881
C         47.51389        54.29474         0.52856
C         46.25799        55.02991         0.57925
C         47.52480        57.13141         0.94639
C         46.25905        56.43125         0.79063
C         47.55052        58.51266         1.21319
C         49.96741        44.43082        -1.11327
C         48.75677        43.75948        -1.32187
C         49.97155        45.85416        -1.02758
C         48.74511        46.57110        -1.07975
C         49.97229        48.64067        -0.47690
C         48.75207        47.99323        -0.79068
C         50.00527        50.14314        -0.39348
C         48.68932        50.77452         0.00322
C         49.98458        52.87086         0.39365
C         48.72093        52.16906         0.28037
C         49.98449        54.29701         0.53684
C         48.75582        55.00540         0.59168
C         49.99190        57.14748         0.78444
C         48.75635        56.43295         0.77935
C         49.96457        58.55291         0.97019
C         48.75019        59.20822         1.22573
C         52.35867        41.68354         0.08673
C         51.21474        42.47907        -0.29533
C         52.43483        44.49259        -1.38639
C         51.22332        43.69760        -0.92002
C         52.43449        45.86290        -0.76764
C         51.20647        46.55377        -0.75094
C         52.44006        48.60981        -0.12514
C         51.19018        47.94041        -0.43050
C         52.45522        49.97571         0.19824
C         51.13679        50.65474         0.48658
C         52.44115        52.81432         0.62925
C         51.19889        52.16142         0.43556
C         52.45466        54.26053         0.68982
C         51.23998        54.98888         0.63750
C         52.48484        57.10728         0.65410
C         51.25291        56.42847         0.67158
C         52.50492        58.58671         0.59397
C         51.20038        59.34589         0.79864
C         52.50268        61.33778         1.43227
C         51.30926        60.70512         1.34715
C         54.95180        39.94543         0.40927
C         54.85680        41.22444        -0.10502
C         53.57059        41.74707        -0.53723
C         54.85730        44.25118        -0.57940
C         53.73892        43.79649        -1.20093
C         54.83226        45.63326         0.03736
C         53.63074        46.46738        -0.35123
C         54.90234        48.52411         0.19855
C         53.65468        47.85349        -0.07496
C         54.91369        49.92167         0.43975
C         53.67051        50.65663         0.48051
C         54.88906        52.74987         1.22208
C         53.64624        52.05874         0.72811
C         54.92808        54.22331         0.83561
C         53.70918        54.95399         0.75147
C         54.97433        57.07580         0.73616
C         53.72326        56.38737         0.70361
C         55.02984        58.58528         0.53487
C         53.75410        59.31187         0.85490
C         54.99907        61.42359         1.24858
C         53.75928        60.67685         1.12714
C         55.01603        62.85965         1.37044
C         57.36295        39.90254         0.13603
C         56.21610        39.32675         0.61943
C         57.29962        41.26477        -0.43672
C         56.04362        42.03689        -0.32591
C         57.34073        44.16555        -0.36966
C         56.07656        43.43495        -0.45341
C         57.32132        45.60255        -0.13141
C         56.15044        46.35714        -0.08795
C         57.35999        48.51136         0.17699
C         56.13396        47.79033         0.10070
C         57.39625        49.86647         0.50961
C         56.16784        50.61301         0.67117
C         57.42661        52.70785         1.28759
C         56.17407        51.98373         0.96861
C         57.38138        54.19046         1.13469
C         56.15228        54.90936         0.82537
C         57.46556        57.07317         0.79387
C         56.16717        56.34613         0.78130
C         57.47593        58.49531         1.24650
C         56.20616        59.25135         1.21619
C         57.44143        61.39821         1.54053
C         56.23975        60.73777         1.27752
C         57.47424        62.86825         1.90964
C         56.15035        63.53972         1.66654
C         59.94751        37.13982         0.46008
C         58.75762        37.78137         0.47237
C         59.95682        39.97049         0.05519
C         58.67831        39.24832         0.37664
C         59.90091        41.29608        -0.63191
C         58.58841        42.03516        -0.69741
C         59.85301        44.19645        -0.44540
C         58.57198        43.49234        -0.50253
C         59.86175        45.55102        -0.17370
C         58.61398        46.29106         0.26797
C         59.87927        48.50499        -0.00372
C         58.60156        47.74919        -0.24070
C         59.90871        49.85474         0.21728
C         58.73000        50.43478         0.97968
C         60.06548        52.63842         0.88479
C         58.77693        51.95014         1.21018
C         60.32855        53.93086         1.33111
C         58.48171        54.93310         1.48316
C         60.04780        56.93908         1.57226
C         58.73806        56.31137         1.07710
C         60.04351        58.47154         1.41317
C         58.77043        59.25211         1.06134
C         60.01961        61.46931         1.28348
C         58.71763        60.68671         1.57676
C         59.89297        62.88297         0.91706
C         58.57806        63.62354         1.11576
C         59.93267        65.68041         1.21418
C         58.85810        64.99962         1.67247
C         62.47733        35.72798         0.80959
C         62.42687        37.10263         0.34792
C         61.22013        37.82156         0.29259
C         62.43843        39.91636        -0.22103
C         61.23352        39.21992        -0.00858
C         62.46289        41.33767        -0.49542
C         61.18190        42.03969        -0.79689
C         62.33891        44.19162        -0.71486
C         61.12954        43.51826        -0.70038
C         62.39887        45.60077        -0.45746
C         61.14478        46.26220        -0.06775
C         62.38002        48.49050        -0.37787
C         61.15281        47.77232        -0.03554
C         62.33825        49.90654        -0.45018
C         61.12455        50.60226        -0.03653
C         62.25819        52.80144        -0.29872
C         61.11697        51.98272         0.15583
C         62.41155        54.20467         0.12935
C         61.35642        54.82495         0.84651
C         62.41314        56.99604         0.47662
C         61.30716        56.25817         0.94955
C         62.33181        58.49132         0.22201
C         61.25104        59.20576         0.97772
C         62.46821        61.26256         0.97503
C         61.21019        60.69432         0.82949
C         61.98364        63.01151        -0.59172
C         60.89266        63.61633         0.25330
C         62.03181        65.80585        -0.14736
C         60.92940        65.04665         0.36208
C         62.09705        67.20445        -0.01465
C         64.82933        35.52310         0.06440
C         63.60287        34.98458         0.74380
C         64.85444        37.03074         0.09492
C         63.67653        37.76583         0.05050
C         64.89114        39.89468        -0.38539
C         63.68823        39.20235        -0.19313
C         64.91891        41.32926        -0.53487
C         63.65191        42.02168        -0.65036
C         64.85730        44.22941        -0.80232
C         63.60238        43.46671        -1.13557
C         64.85342        45.59073        -0.61047
C         63.59568        46.32229        -0.48336
C         64.80040        48.51448        -0.66059
C         63.59703        47.77706        -0.47311
C         64.76499        49.90185        -0.85886
C         63.53649        50.60493        -0.74122
C         64.75992        52.85081        -0.80618
C         63.50674        52.07660        -0.81531
C         64.74810        54.21807        -0.67695
C         63.57138        54.92943        -0.21894
C         64.77474        57.10344        -0.36069
C         63.58401        56.34808        -0.03437
C         64.78848        58.55627        -0.22604
C         63.64306        59.25349         0.20186
C         64.71731        61.43580        -0.24782
C         63.64807        60.67197         0.31025
C         64.65579        62.93586        -0.49047
C         63.34743        63.68287        -0.49628
C         64.49444        65.93996        -0.95582
C         63.19540        65.15740        -0.80238
C         64.53205        67.29262        -0.37825
C         63.30531        67.91048        -0.10346
C         67.41920        32.85389         0.87410
C         66.20472        33.48670         0.59053
C         67.25693        35.66052         0.86751
C         66.11797        34.88133         0.54482
C         67.33816        37.06254         0.47676
C         66.14867        37.66453        -0.17813
C         67.45223        39.88830        -0.42691
C         66.15449        39.14672        -0.51311
C         67.41331        41.37294        -0.38570
C         66.13866        42.02772        -0.58362
C         67.30059        44.23216        -0.37651
C         66.15508        43.47877        -1.01448
C         67.30568        45.70182        -0.55435
C         66.11085        46.34793        -0.56501
C         67.35892        48.52737        -0.76863
C         66.09594        47.83483        -0.31667
C         67.33737        49.90054        -1.39492
C         65.99924        50.64212        -1.26876
C         67.28576        52.87907        -1.09863
C         66.00002        52.14340        -1.20247
C         67.26473        54.26609        -1.01718
C         65.94311        54.99593        -1.17412
C         67.18457        57.12867        -0.85259
C         65.96754        56.43134        -0.71490
C         67.12752        58.58734        -1.01510
C         65.93427        59.31551        -0.56960
C         67.13650        61.46567        -0.88697
C         65.90485        60.73250        -0.59979
C         67.09813        62.86598        -1.16470
C         65.82733        63.63347        -1.16063
C         67.02106        66.00173        -1.06076
C         65.78172        65.19056        -1.24516
C         67.02638        67.25075        -0.35402
C         65.79592        67.91013        -0.04727
C         67.06776        69.77775         0.87769
C         65.85714        69.17455         0.58259
C         70.26283        31.98253         0.38320
C         69.88153        32.97673         1.39843
C         68.53121        33.60570         1.27150
C         69.45949        35.82348         2.02767
C         68.41363        35.00893         1.37675
C         69.51498        37.29161         1.62045
C         68.48384        37.79771         0.69314
C         69.79557        39.97326         0.63735
C         68.66579        39.16242         0.15708
C         69.86853        41.36470         0.15101
C         68.60287        42.06353        -0.19208
C         69.81461        44.33512         0.11035
C         68.56490        43.53656        -0.02403
C         69.81086        45.72419        -0.13359
C         68.62538        46.38062        -0.79637
C         69.81786        48.61081        -0.66546
C         68.55907        47.88219        -0.66882
C         69.81657        50.02902        -0.84630
C         68.56661        50.73734        -1.06243
C         69.77003        52.91316        -1.17415
C         68.52031        52.12857        -1.09857
C         69.73706        54.36794        -0.95544
C         68.48293        55.03593        -0.95336
C         69.68151        57.20978        -0.93912
C         68.44157        56.46361        -0.94628
C         69.69227        58.63133        -1.00041
C         68.42102        59.34832        -1.17285
C         69.60946        61.50898        -1.10776
C         68.37600        60.80319        -0.98943
C         69.56580        62.90618        -1.38056
C         68.27743        63.42308        -1.66242
C         69.52121        65.97062        -1.04985
C         68.24696        65.54020        -1.52163
C         69.53021        67.23610        -0.38613
C         68.28185        67.88845        -0.07631
C         69.56734        69.81209         0.86769
C         68.30118        69.16642         0.55627
C         69.61365        71.09207         1.47115
C         72.62786        32.44699         0.75635
C         71.56794        31.67806         0.15919
C         72.36799        33.50217         1.57336
C         71.00320        33.78316         2.04068
C         71.85319        36.05030         2.79843
C         70.65985        35.13582         2.70955
C         71.87514        37.35893         2.40316
C         70.78061        38.03214         1.78655
C         71.91650        40.25978         1.85505
C         70.83769        39.40638         1.38674
C         71.99116        41.57560         1.54747
C         71.06121        42.20476         0.59858
C         72.15304        44.46381         0.73187
C         70.99835        43.69362         0.52282
C         72.14366        45.83486         0.50538
C         70.98948        46.48570         0.02271
C         72.20086        48.65685        -0.18831
C         71.00320        47.92322        -0.29814
C         72.21799        50.02966        -0.39053
C         71.04429        50.73075        -0.70826
C         72.22792        53.00018        -0.50955
C         71.10320        52.18221        -0.97929
C         72.16365        54.35689        -0.52614
C         70.94588        55.08042        -0.80619
C         72.12181        57.28189        -0.73578
C         70.92569        56.51970        -0.81545
C         72.10952        58.66121        -0.78247
C         70.89244        59.37406        -0.92721
C         72.01753        61.61201        -1.24106
C         70.86337        60.82745        -1.07503
C         71.96315        63.00536        -1.35516
C         70.74847        63.72196        -1.40553
C         71.92422        65.85716        -0.90295
C         70.71815        65.18547        -1.20732
C         71.95355        67.14850        -0.39227
C         70.77312        67.84656        -0.06056
C         72.01344        69.79739         0.89270
C         70.79485        69.15547         0.56972
C         72.02981        71.05078         1.48580
C         70.82106        71.70270         1.77495
O         67.55065        43.89806         1.03227
O         61.00487        58.96128         2.41739
O         58.37093        56.68695        -0.29122
O         51.76495        59.16956        -0.54811
O         63.54601        65.74105        -2.06825
O         58.14909        52.25677         2.49693
O         68.90227        36.85289         2.89507
O         56.69816        58.64965         2.46938
O         59.58052        61.11466         2.66997
O         57.82784        41.45846        -1.80762
O         68.23139        64.54277        -2.49581
O         61.73920        62.26789        -1.52734
O         60.53794        41.36176        -1.94252
O         68.46678        39.32704        -1.29913
O         70.61983        52.53489        -2.31289
O         61.28210        46.98040         1.23418
O         70.36150        32.66427         2.74892
O         46.23003        47.69418        -2.46435
O         65.60397        64.34368        -2.41173
O         59.45786        54.39635         2.32207
O         64.18756        63.64050         0.71176
O         66.21401        38.13249        -1.57587
O         62.51459        52.62604        -1.73909
O         53.70101        42.49342        -1.73333
O         65.78458        51.44246        -2.49302
O         71.02426        41.60427        -0.74253
O         38.73581        50.50676        -1.00197
O         44.60402        47.89268         0.76759
O         59.42170        39.99879         1.42817
O         42.33671        49.21886         1.05898
O         43.61250        51.91394         1.70513
H         43.74392        52.75798         2.18836
O         58.63427        46.30304         1.71870
H         59.51430        46.67070         1.98485
O         50.28159        50.61240        -1.75153
H         49.59231        50.24338        -2.34320
O         57.77128        62.99495         3.32575
H         58.49780        62.35345         3.52251
O         54.75695        52.76400         2.69936
H         55.61849        53.05735         3.06869
O         43.56238        51.00899        -1.86134
H         44.33358        51.55673        -2.15384
O         58.84620        59.43930        -0.38321
H         58.83079        58.55292        -0.81644
O         64.70313        35.19331        -1.36447
H         65.28582        35.80699        -1.86324
O         50.80204        50.29790         1.86213
H         51.51686        50.63445         2.44279
O         58.52655        47.62107        -1.69777
H         58.43799        48.51770        -2.08410
O         67.49642        49.58539        -2.82049
H         67.13914        50.36175        -3.31467
O         60.07839        56.69548         2.98929
H         60.67255        57.37630         3.38291
O         61.85850        58.57856        -1.16675
H         62.56814        58.24118        -1.75444
O         46.10146        52.02368         1.99251
H         45.54579        51.23947         2.19808
O         66.37333        43.46178        -2.46882
H         67.12895        42.86484        -2.65973
O         65.72777        55.10409        -2.62536
H         65.63754        54.19353        -2.98186
O         40.90143        52.19419         1.53154
H         41.68975        51.72280         1.89830
O         58.02957        63.80968        -0.22440
H         58.72430        64.21714        -0.78415
O         54.66137        45.43688         1.48857
H         55.54429        45.24542         1.87208
O         67.62869        58.96228        -2.35705
O         68.87473        46.17699        -2.23705
H         68.34912        46.84408        -2.73101
O         45.25927        52.92414        -1.48890
H         44.80204        53.70467        -1.86769
O         70.27416        34.85073         4.07075
H         69.97176        33.91176         4.09320
O         62.64472        62.29294         1.82770
H         61.82062        62.44604         2.33484
O         66.13140        47.96331         1.16124
H         66.73824        47.27518         1.51006
O         52.27148        44.69561        -2.82660
H         52.45568        43.83170        -3.25500
O         55.26611        58.79335        -0.89446
H         54.42260        58.63365        -1.36962
O         58.91284        49.83564         2.30354
H         58.47665        50.44093         2.94874
O         63.55391        43.39792        -2.59703
H         64.48210        43.28713        -2.91515
H         36.30146        50.25291        -0.39704
H         34.78867        52.01565         0.53833
H         38.09228        54.78908         0.61610
H         35.71057        54.29149         1.03998
H         39.18256        48.17713        -1.34431
H         39.35814        55.12354        -1.09002
H         41.21004        46.85416        -1.01752
H         41.54832        56.19820        -0.84683
H         44.91991        44.86612        -1.81215
H         42.86980        45.89963        -1.12265
H         44.99217        58.20409         0.94005
H         42.90686        57.05251         0.41467
H         46.63861        43.91460        -1.66202
H         46.61992        59.06737         1.38696
H         48.74335        42.66391        -1.40562
H         48.73103        60.29325         1.39063
H         52.24681        41.02737         0.96203
H         50.24153        42.10932         0.06819
H         52.53163        62.35796         1.83793
H         50.40718        61.20961         1.71986
H         54.03487        39.37311         0.60787
H         54.08332        63.42105         1.21855
H         56.24525        38.33939         1.09994
H         56.11554        64.63471         1.76499
H         59.94905        36.04316         0.51885
H         57.82677        37.19814         0.50666
H         60.10807        66.71010         1.55639
H         58.15016        65.46381         2.37363
H         61.58098        35.29444         1.27480
H         61.20677        67.76357         0.30380
H         63.61117        33.95662         1.13408
H         63.28427        68.97248         0.17690
H         67.49215        31.75957         0.80920
H         65.33051        32.87918         0.31899
H         67.04893        70.75684         1.37324
H         64.93212        69.70359         0.84637
H         69.47073        31.50613        -0.21267
H         68.68423        71.62654         1.70744
H         73.66180        32.23609         0.44893
H         71.83323        30.90903        -0.57992
H         73.18363        34.17325         1.87867
H         72.72629        35.65670         3.33947
H         72.80783        37.91876         2.56353
H         72.64220        39.84442         2.56687
H         72.74226        42.20519         2.04588
H         73.08711        43.98069         1.04955
H         73.07404        46.39224         0.67247
H         73.14665        48.15556         0.05182
H         73.17557        50.56202        -0.31963
H         73.13886        52.50967        -0.13980
H         73.05145        54.92162        -0.21091
H         73.09061        56.77283        -0.65058
H         73.06147        59.20569        -0.72081
H         73.00717        61.13453        -1.24964
H         72.92280        63.53602        -1.41057
H         72.88820        65.35296        -1.04855
H         72.93468        67.59998        -0.19416
H         72.97030        69.30517         0.67351
H         72.98706        71.53287         1.72736
H         70.83079        72.69701         2.24230
