         261
 CSIRO Nanostructure Databank - Neutral Graphene Oxide Data Set
C        -11.09014         0.60626         1.04538
C         -9.77066         1.34314         1.25437
C         -8.73869         0.75080         0.32554
C         -7.56047         1.52059        -0.16416
C         -6.27897         0.75074        -0.41240
C         -4.97215         1.46683        -0.55035
C         -3.64296         0.75252        -0.46726
C         -2.43723         1.50454        -0.93426
C         -1.29024         0.72788        -1.54928
C          0.03288         1.46533        -1.52368
C          1.32065         0.70594        -1.62562
C          2.62976         1.43530        -1.93791
C          3.90574         0.67196        -1.66173
C          5.17795         1.45353        -1.28682
C          6.33217         0.72692        -0.64401
C          7.63836         1.45374        -0.33686
C          8.77579         0.70880         0.30738
C          9.99242         1.46646         0.75352
C         10.96754         0.76413         1.63765
C         -9.76265         2.85058         1.21772
C         -8.65303         3.59343         0.84248
C         -7.52081         3.02881        -0.00349
C         -6.15723         3.61651         0.29681
C         -4.92269         2.90485        -0.14504
C         -3.66132         3.66828        -0.47762
C         -2.63922         2.95645        -1.40485
C         -1.31028         3.72663        -1.53269
C          0.00577         2.95704        -1.76928
C          1.31543         3.70758        -1.83187
C          2.65015         2.94582        -1.89359
C          3.95165         3.72597        -1.65929
C          5.14856         2.95648        -1.11617
C          6.38473         3.67807        -0.63874
C          7.69895         2.94722        -0.43090
C          8.88880         3.63888         0.15076
C          9.94129         2.94637         0.65733
C         -8.56654         4.98439         1.11927
C         -7.40265         5.75326         0.83299
C         -6.33596         5.08821        -0.02067
C         -5.05939         5.94429        -0.27062
C         -3.73396         5.15721        -0.41791
C         -2.54780         5.95437        -0.89189
C         -1.26954         5.18321        -1.16162
C          0.06026         5.73565        -0.68697
C          1.33604         5.07634        -1.16230
C          2.59767         5.91332        -1.20144
C          3.93934         5.21759        -1.42057
C          5.20358         5.92645        -0.92950
C          6.56271         5.17906        -0.97074
C          7.62422         5.79710        -0.04204
C          8.98578         5.13006        -0.10179
C         -7.32341         7.07646         1.21417
C         -6.02427         7.81552         1.38616
C         -4.84442         7.12297         0.69544
C         -3.65397         7.94389         0.33141
C         -2.51364         7.37797        -0.47746
C         -1.21510         7.93390         0.03614
C          0.02690         7.10678        -0.02488
C          1.35174         7.79147         0.30968
C          2.53953         7.22832        -0.48437
C          3.76686         7.77030         0.18767
C          5.09991         7.16202        -0.10141
C          6.16426         7.61147         0.88627
C          7.48853         6.95406         0.62785
C         -6.06699         9.30442         1.09263
C         -4.99591        10.03650         0.75364
C         -3.67910         9.46385         0.28276
C         -2.40395        10.03286         0.94626
C         -1.15138         9.38891         0.36188
C          0.04816        10.02558         0.35641
C          1.31495         9.32115         0.23055
C          2.49950         9.97307         0.41418
C          3.73624         9.20442         0.62424
C          5.05091         9.84884         0.84650
C          6.18510         9.12868         0.93287
C        -11.13847        -0.71808         0.79146
C         -9.91063        -1.53377         0.56040
C         -8.65738        -0.75307         0.37754
C         -7.34203        -1.35011         0.73547
C         -6.14320        -0.61273         0.22587
C         -4.97434        -1.41845        -0.26668
C         -3.64117        -0.76124        -0.49047
C         -2.47089        -1.54796        -1.01868
C         -1.32292        -0.77595        -1.63610
C         -0.04719        -1.55797        -1.89132
C          1.27906        -0.79202        -1.87863
C          2.55837        -1.55490        -1.69333
C          3.86592        -0.81538        -1.44852
C          4.70724        -1.31455        -0.27565
C          6.06441        -0.61518        -0.01082
C          7.20816        -1.31828         0.65686
C          8.47591        -0.57360         1.01040
C          9.54495        -1.26046         1.79161
C         10.83786        -0.53882         1.96441
C         -9.78529        -2.99373         0.77527
C         -8.55515        -3.65354         0.74118
C         -7.34763        -2.81462         1.21368
C         -5.86315        -3.26868         1.13712
C         -4.98465        -2.90222        -0.05516
C         -3.77865        -3.71416        -0.57130
C         -2.60322        -3.04889        -1.25853
C         -1.36612        -3.90061        -1.72186
C         -0.04469        -3.07624        -1.87628
C          1.27482        -3.83239        -1.70160
C          2.56215        -3.04177        -1.44203
C          3.69401        -3.66593        -0.67219
C          4.78400        -2.83210        -0.04099
C          5.99829        -3.53332         0.50038
C          7.37310        -2.83770         0.47318
C          8.40699        -3.45570         1.41554
C          9.42159        -2.73564         1.94729
C         -8.56544        -5.08403         0.67970
C         -7.48106        -5.93639         0.33107
C         -6.31039        -5.34235        -0.39343
C         -4.95825        -5.90997         0.03219
C         -3.68495        -5.14513        -0.11137
C         -2.37544        -5.86800        -0.25058
C         -1.22030        -5.19941        -0.91386
C         -0.05766        -6.05880        -1.32288
C          1.24619        -5.29163        -1.32986
C          2.27575        -5.82479        -0.37164
C          3.49151        -5.01701        -0.03678
C          4.74012        -5.75386         0.37219
C          6.04586        -5.04115         0.52587
C          7.15345        -5.69629         1.29139
C          8.48849        -4.97576         1.39720
C         -7.45574        -7.32523         0.43560
C         -6.28832        -8.10973        -0.01470
C         -4.95492        -7.39228        -0.09035
C         -3.67442        -8.10783         0.21172
C         -2.37666        -7.36614        -0.00804
C         -1.33591        -8.25049        -0.71161
C         -0.06185        -7.55456        -1.17150
C          1.32660        -8.27455        -0.89380
C          2.23797        -7.30728        -0.05675
C          3.40312        -7.93073         0.62738
C          4.55904        -7.07236         1.06132
C          5.74440        -7.71705         1.69357
C          7.03068        -6.97078         1.72902
C         -6.20615        -9.59250         0.06565
C         -5.04090       -10.24818        -0.09197
C         -3.66630        -9.64212         0.10531
C         -2.50609       -10.00710        -0.86971
C         -1.20166        -9.65481        -0.20032
C         -0.03552       -10.31703        -0.05195
C          1.22931        -9.59334        -0.08627
C          2.35716       -10.14252         0.43133
C          3.67746        -9.41233         0.35342
C          4.75161        -9.95759         1.27284
C          5.71011        -9.19960         1.82917
O         -6.50093        -0.53953         1.62807
O         -2.61165        -1.28281         0.41238
O          5.34907         3.34499         0.31495
O          6.21789         0.84031        -2.08635
O         -2.85614        -7.67402         1.33565
O         -0.81560         7.07595         1.16763
O         -9.28879        -1.31943        -0.80055
O          4.32600        -0.29632        -2.69204
O          0.79400         1.09473        -0.31901
O          0.56343         3.44024        -3.02890
O          2.69614         2.20195        -3.15377
O         -2.68718         1.31306         0.47669
O          0.82543         4.85269         0.19745
O         -8.68388         1.19641        -1.04645
O         -5.30546         3.07409         1.29014
O         -3.73249        -3.52649        -2.01359
O          7.07548         5.22030        -2.25682
O         -2.22252        -8.87364        -1.79450
O         -3.21330         4.37500         0.70637
O          6.18048        -0.70035         1.45991
O         -1.66675         0.06467        -2.78411
O          5.38671         7.25934        -1.51346
O          3.71338        -3.65596        -2.11429
O          4.97207        -3.05804         1.40350
O         -5.59488        -2.31177        -1.23423
O         -6.45912        -4.62285        -1.35588
O          1.97278        -8.52722        -2.08256
O         -1.34276        -5.13229         0.52437
O          4.16124         4.66093        -2.74690
O          9.95010         0.73100        -0.53994
O          1.65272         7.50127         1.66428
O          2.06623        -1.19815        -3.01609
O         -1.35761         4.76390        -2.55755
O         -7.64179        -2.75713         2.62528
O          3.51255         8.01421         1.58951
O          5.72035        -5.73793        -0.71675
O          2.35729        -5.03554         0.86700
O         -2.72616         7.03977        -1.86480
O         -5.65523        -7.72492        -1.31341
O          1.57847        -4.87649        -2.67392
O         -0.21773        -6.93608        -2.46398
O         -5.71206         1.01868        -1.72338
O         -7.71707         3.61677        -1.35216
O          2.46093         7.19695        -1.91372
O          7.84767        -2.99085        -0.82720
O         -3.68785         7.17267         1.58479
O          8.09747         2.12795        -1.55136
O         -0.14116        -2.33268        -3.12267
O          4.71162        -7.02606         2.51150
O          2.16542        -7.61923         1.35238
O         -6.99861         4.92579        -1.34991
O         -4.28531        -5.39600         1.19713
O          8.49712        -0.46119         2.47569
O          9.91448         5.74208         0.78688
H          9.68731         5.48725         1.70408
O         -3.24541         2.89869        -2.70251
H         -2.82161         3.57607        -3.27834
O          4.19983        -9.51299        -0.99192
H          3.46854        -9.24126        -1.62266
O         -3.27679       -10.19147         1.38835
H         -2.82264        -9.47145         1.88904
O         -5.82475         7.72771         2.82848
H         -4.85632         7.60228         2.97567
O         -2.40804         9.75605         2.34660
H         -2.28272         8.79088         2.47789
O          9.23705        -5.46310         2.50692
H          8.73713        -5.27333         3.32710
O          5.72328         7.13386         2.18754
H          6.30413         7.51881         2.87613
O         -1.66587        -4.38654        -3.02970
H         -1.44885        -3.68624        -3.68584
O         -3.54496         9.81429        -1.11694
H         -4.21580         9.32127        -1.63584
O         -5.26508         6.63940        -1.51935
H         -5.69731         6.03244        -2.16209
O         -9.31213         0.99244         2.59688
H         -9.95943         1.33369         3.24881
O          3.81326        -0.84704         0.78072
H          4.22399        -1.11351         1.63914
O         -5.33442        -3.54615         2.19690
H         -6.80210        -2.97260         3.10493
H         11.64264        -1.05223         2.51209
H         11.89454         1.30209         1.88994
H         10.81830         3.51306         1.01035
H          9.37766         5.26734        -1.14509
H          8.36163         7.35051         1.17453
H          7.14804         9.64007         1.08257
H          5.07340        10.94694         0.90791
H          2.54325        11.06931         0.48598
H          0.09457        11.09930         0.59680
H         -2.36864        11.14193         0.81567
H         -5.09587        11.13019         0.67075
H         -7.00319         9.81968         1.35883
H         -8.19081         7.51558         1.73299
H         -9.38058         5.46379         1.68423
H        -10.57287         3.37234         1.75437
H        -12.02938         1.16389         1.18644
H        -12.11448        -1.22276         0.71449
H        -10.70694        -3.59472         0.69406
H         -9.54939        -5.56392         0.82282
H         -8.27516        -7.85870         0.94244
H         -7.15300       -10.15397         0.07535
H         -5.05686       -11.34849        -0.12398
H         -2.60669       -10.98405        -1.39222
H         -0.02064       -11.40846         0.09016
H          2.30632       -11.11500         0.94655
H          4.77809       -11.04952         1.41354
H          6.49892        -9.67046         2.43689
H          7.89393        -7.45290         2.21491
H          9.07227        -5.23995         0.47164
H         10.21877        -3.26599         2.49379
