         276
 CSIRO Nanostructure Databank - Neutral Graphene Oxide Data Set
C        -11.01644         0.72510        -0.00690
C         -9.78296         1.55534         0.30786
C         -8.48519         0.90377        -0.27937
C         -7.21918         1.40595         0.41519
C         -5.92634         0.71216         0.12994
C         -4.77304         1.64091        -0.23343
C         -3.47106         0.99277        -0.78201
C         -2.17650         1.66025        -0.14659
C         -0.91686         0.81978         0.03770
C          0.38330         1.51376         0.53614
C          1.30983         0.74347         1.48213
C          2.61585         1.46441         1.68234
C          3.95831         0.77856         1.44750
C          4.67823         1.33287         0.18972
C          5.82868         0.49609        -0.42357
C          7.05060         1.11591        -1.04679
C          8.30491         0.38065        -1.23647
C          9.61452         1.20743        -1.41270
C         10.87273         0.49300        -1.09746
C         -9.94076         3.00128        -0.19287
C         -8.97114         3.79890        -0.61688
C         -7.06286         2.88776         0.67985
C         -5.87411         3.47837        -0.05798
C         -4.66723         2.87653         0.61819
C         -3.57212         3.62473         0.84084
C         -2.25392         2.99536         0.56555
C         -1.11128         3.57367         1.37768
C          0.21134         2.98237         0.93279
C          1.42621         3.69573         1.37329
C          2.72274         3.00046         1.75799
C          3.83432         3.65869         0.98094
C          4.73344         2.83249         0.17952
C          5.49528         3.52656        -0.72367
C          7.09504         2.39766        -1.58686
C          8.26344         3.25329        -1.59114
C          9.48238         2.66595        -1.33657
C         -8.19075         4.72114        -1.16974
C         -7.21490         5.63973        -0.43073
C         -5.79730         4.96265        -0.46083
C         -4.78387         5.80801         0.34444
C         -3.78587         5.06942         1.29739
C         -2.44058         5.76842         1.51997
C         -1.12334         5.11946         1.14960
C          0.07976         5.84445         1.79117
C          1.37698         5.12511         1.81137
C          2.52687         5.80882         1.12567
C          3.76052         5.02411         0.80725
C          4.72392         5.70612        -0.10374
C          5.97733         4.92482        -0.42589
C          6.79560         5.51398        -1.59541
C          8.18247         4.78642        -1.72347
C         -7.04121         7.00919        -1.05579
C         -5.95892         7.75057        -0.68925
C         -4.89244         7.16349         0.15530
C         -3.98645         8.16880         0.78223
C         -2.38717         7.06866         1.87255
C         -1.23930         8.01249         1.67534
C          0.09261         7.32622         1.59853
C          1.16179         8.02232         1.10804
C          2.38864         7.24954         0.74242
C          3.62095         7.98817         0.33045
C          4.71508         7.17684        -0.30218
C          6.00597         7.90532        -0.67399
C          6.94748         7.02648        -1.47868
C         -5.93427         9.18848        -0.98141
C         -5.14181        10.08966        -0.35841
C         -4.08266         9.65515         0.58065
C         -2.92014         8.89360        -0.06206
C         -1.42052         8.75080         0.29583
C         -0.41992         9.94644         0.33997
C          1.00778         9.36049         0.51124
C          2.07337         9.96786        -0.08959
C          3.45104         9.40570        -0.12190
C          4.47634         9.88128        -1.09297
C          5.61248         9.20678        -1.36675
C        -11.02243        -0.52854        -0.48342
C         -9.76807        -1.22222        -0.96590
C         -8.56001        -0.61761        -0.27499
C         -7.28102        -1.40879        -0.28266
C         -6.00027        -0.65114        -0.47937
C         -4.72239        -1.36327        -0.81819
C         -3.42805        -0.59622        -0.73831
C         -2.19053        -1.42410        -0.46883
C         -0.96522        -0.68649         0.04249
C          0.05807        -1.43312         0.82512
C          1.27269        -0.75958         1.36670
C          2.55075        -1.54723         1.41010
C          3.87640        -0.77751         1.49795
C          5.08649        -1.52778         1.07259
C          5.95802        -1.01789        -0.07984
C          7.36161        -1.59852         0.04421
C          8.41495        -1.06267        -0.87105
C          9.75843        -1.73159        -0.85825
C         10.94436        -0.84738        -0.92776
C         -9.76165        -2.72496        -0.94374
C         -8.54989        -3.44179        -1.01848
C         -7.30934        -2.77810        -0.77883
C         -6.02235        -3.51664        -1.01453
C         -4.72740        -2.83318        -0.57130
C         -3.63338        -3.51272        -0.11707
C         -2.20058        -2.99755        -0.49254
C         -0.96245        -3.63500         0.21285
C         -0.05202        -2.77911         1.04493
C          1.15243        -3.66249         0.70489
C          2.49747        -2.87098         0.55192
C          3.72311        -3.70928         0.93076
C          5.02302        -3.03168         1.15260
C          6.36696        -3.77796         1.20208
C          7.53073        -2.99663         0.56547
C          8.76880        -3.76156         0.20200
C          9.84952        -3.10363        -0.28305
C         -8.52770        -4.85210        -1.32601
C         -7.38325        -5.64243        -1.08112
C         -6.21321        -4.92192        -0.49357
C         -5.08608        -5.64160         0.16007
C         -3.81997        -4.87269         0.59242
C         -2.53338        -5.65306         0.35869
C         -1.30153        -4.95637         0.94483
C         -0.05243        -5.86793         1.12227
C          1.25180        -5.12623         1.19347
C          2.58418        -5.91112         1.14313
C          3.74920        -5.13795         0.56407
C          4.92377        -5.75500         0.25410
C          6.24531        -5.20622         0.66151
C          7.48846        -5.97768         0.33711
C          8.83401        -5.26028         0.50498
C         -7.35559        -7.02848        -1.18617
C         -6.26925        -7.83676        -0.60860
C         -5.09799        -7.15298         0.08096
C         -3.78860        -7.89650         0.16545
C         -2.52142        -7.10594        -0.00124
C         -1.17475        -7.84925        -0.14623
C         -0.09922        -7.39500         0.89215
C          1.20389        -7.91850         0.24065
C          2.51202        -7.31574         0.62141
C          3.76514        -7.98525         0.25062
C          4.84733        -7.12046        -0.37785
C          6.15520        -7.83989        -0.61539
C          7.36045        -7.22723        -0.46334
C         -6.08116        -9.22969        -1.07398
C         -4.97308        -9.94860        -0.80588
C         -3.76590        -9.36770        -0.17992
C         -2.46626       -10.02148        -0.39979
C         -1.27301        -9.36927        -0.15008
C         -0.03774       -10.06454        -0.18690
C          1.21014        -9.40905        -0.04093
C          2.40316       -10.07347        -0.28952
C          3.72039        -9.42081        -0.21261
C          4.85310        -9.88930        -1.05225
C          5.99690        -9.17531        -1.18902
O          1.71999         1.11848         2.81625
O          8.88995         0.63783        -2.54266
O         -3.82051        -8.87557         1.23163
O          6.81791        -6.16484         1.62562
O          5.86292         2.96206        -1.93474
O          8.83698        -1.84147        -2.02154
O          4.95731        -1.10420         2.45792
O          0.33248        -3.87129        -0.60428
O         -7.57490         3.39338         1.67772
O          1.97651         6.22625        -0.21610
O         -1.90303         2.90904        -0.85223
O         -6.14910        -7.73332         0.87654
O         -8.09970        -1.22694         0.94202
O          7.83995        -1.80005         1.39778
O          4.17606        -3.44807         2.28907
O         -2.57129        -6.06874        -1.03171
O          1.00464         3.74493        -0.03397
O          4.52108         0.68397        -1.09055
O         -5.58190        -0.81869        -1.87461
O          1.72062        -1.47519         2.57457
O         -5.51515         2.56726        -1.20542
O         -3.57856         7.77134         2.11091
O          4.16273         6.30689        -1.33621
O         -2.53705        -0.99607        -1.82243
O         -6.49553         0.70767         1.47509
O         -0.68293        -7.54962        -1.44952
O         -0.47066         0.05078        -1.12302
O          0.54806        -5.50056         2.40407
O          4.03275         9.05692         1.21729
O          4.17165        -9.05003         1.15916
O         -6.20470        -5.09794         0.95085
O          0.71723         5.43257         3.06468
O         -4.45949         4.98146         2.57776
H         -4.68592         5.90002         2.84565
O         -5.37760         5.01429        -1.83598
H         -4.89499         4.18170        -2.04571
O          2.99849        -6.07660         2.53407
H          3.44246        -5.24971         2.83671
O          6.11887         5.31103        -2.85006
H          5.20478         5.67479        -2.74591
O         -8.31065         1.35611        -1.63486
H         -8.84881         0.77810        -2.22990
O          9.79312        -5.90696        -0.32476
H         10.69023        -5.70975         0.00943
O          9.05026         5.32924        -0.71585
H          8.93589         6.30747        -0.72689
O         -3.99839        -4.57887         1.98539
H         -4.96892        -4.47066         2.13359
O         -0.35363        -8.03086         2.13869
H          0.17126        -7.56163         2.82603
O          2.95281         3.33154         3.14391
H          2.32713         2.80016         3.68568
O          4.30003        -6.88083        -1.72769
H          4.95424        -6.35626        -2.23711
O         -3.45841         1.33035        -2.15937
H         -2.73890         0.81747        -2.58974
O          6.66031         8.25976         0.58141
H          6.00364         8.77861         1.10581
O         -1.28065         3.25717         2.76514
H         -2.07268         3.72758         3.10413
O          2.62171        -2.46778        -0.81963
H          1.78121        -2.68739        -1.28671
O         -0.88953         7.96665        -0.78143
H         -1.17522         7.01753        -0.70915
O          6.78425         4.87264         0.77177
H          7.73791         4.96872         0.52604
O          1.26258        -7.19177        -1.01292
H          1.65305        -7.74670        -1.72454
O          5.41444        -1.73227        -1.22066
H          4.65940        -1.20457        -1.57580
O         -1.63550        -4.48783         2.25891
H         -1.85238        -5.24715         2.83833
O         -7.64416         5.92584         0.90046
H         -7.83447         5.08629         1.38415
O         -5.85121        -3.64561        -2.45978
H         -5.81855        -2.73143        -2.82481
O         -9.62969        -0.84727        -2.39774
H        -10.39644        -1.22579        -2.87864
O          4.83408         1.24244         2.49119
H          4.47231         0.95322         3.35525
O         -3.81255        10.49632         1.66631
H         -3.18543        10.02335         2.25952
O         -9.70563         1.58762         1.74026
H         -9.01156         2.23688         2.01193
O          6.71804        -3.89926         2.59070
H          6.71725        -2.99489         2.97250
O          1.26947         1.50726        -0.61375
H          0.80940         1.92474        -1.37368
O         -1.27856         9.02886         2.70397
H         -1.13508         8.59475         3.57083
O         -0.48951        10.66736        -0.88173
H         -0.49176         9.99811        -1.60013
O         -2.05418        -3.42105        -1.84667
H         -2.54596        -2.79435        -2.42457
O         -1.00417         5.34352        -0.27388
H         -0.11541         5.01485        -0.57062
H         11.91917        -1.30385        -0.69592
H         11.79225         1.09402        -1.02457
H         10.36673         3.28287        -1.12194
H          8.58940         5.05677        -2.74082
H          7.36190         7.49583        -2.38976
H          6.32020         9.63226        -2.09567
H          4.26685        10.82436        -1.62263
H          1.89496        10.89922        -0.65075
H         -0.65506        10.65114         1.17517
H         -3.07277         8.73195        -1.14413
H         -5.26218        11.16534        -0.55215
H         -6.70850         9.55124        -1.67523
H         -7.87276         7.47297        -1.60780
H         -8.10196         4.72603        -2.27215
H        -10.94865         3.43679        -0.05617
H        -11.97503         1.18385         0.28556
H        -11.98166        -1.05410        -0.61957
H        -10.70702        -3.25200        -1.14356
H         -9.46512        -5.34303        -1.62695
H         -8.20455        -7.55580        -1.64790
H         -6.90916        -9.69125        -1.63346
H         -4.89320       -10.98150        -1.17829
H         -2.46117       -11.09823        -0.63419
H         -0.04027       -11.15373        -0.34804
H          2.36337       -11.12505        -0.61358
H          4.76666       -10.88364        -1.51580
H          6.84996        -9.61018        -1.73213
H          8.28765        -7.74347        -0.75515
H          9.14146        -5.37786         1.58241
H         10.78108        -3.65954        -0.47845
