         210
 CSIRO Nanostructure Databank - Neutral Graphene Oxide Data Set
C         30.49687        31.92710        -1.30653
C         30.54450        33.10352        -0.86157
C         30.44736        36.05856         0.14101
C         30.44706        37.26780         0.47898
C         30.47851        40.28797         1.25503
C         30.38152        41.55955         1.28857
C         32.94910        29.22326        -1.86871
C         31.83075        29.78471        -1.87875
C         32.88513        31.79064        -1.04783
C         31.64698        31.12432        -1.44680
C         32.86654        33.14894        -0.57432
C         31.63697        33.88344        -0.45102
C         32.79122        35.96865         0.25786
C         31.59298        35.24626        -0.02135
C         32.79474        37.34338         0.59324
C         31.57630        38.07391         0.75440
C         32.81929        40.18071         1.49648
C         31.56349        39.43835         1.15958
C         32.79492        41.71601         1.49721
C         31.46563        42.41882         1.19237
C         32.74253        44.22483         0.47172
C         31.61032        43.76879         0.80593
C         35.60634        27.62666        -1.71631
C         35.42723        28.99884        -1.42222
C         34.21794        29.71725        -1.48229
C         35.36458        31.71885        -0.63779
C         34.14445        31.09005        -1.07449
C         35.32362        33.11132        -0.21697
C         34.09631        33.78688        -0.17609
C         35.34090        35.91929         0.55615
C         34.03710        35.16650         0.35948
C         35.34529        37.38998         0.57194
C         34.05700        38.18087         0.47677
C         35.34398        40.24672         0.98147
C         34.13900        39.40072         1.42110
C         35.32997        41.64573         0.92062
C         34.13943        42.48796         1.39313
C         35.22046        44.39303         0.09522
C         34.05952        43.78635         0.55833
C         35.34398        45.68599        -0.49063
C         37.93700        27.50718        -1.27462
C         36.67011        26.97579        -1.61672
C         37.89224        28.87595        -0.92609
C         36.64826        29.62265        -0.98024
C         37.77393        31.60394         0.09821
C         36.57696        30.99303        -0.59915
C         37.81622        33.10969         0.00313
C         36.57699        33.81449         0.04248
C         37.81269        35.93704         0.34558
C         36.59298        35.21031         0.26464
C         37.80405        37.35951         0.53884
C         36.54444        38.07545         0.61719
C         37.77803        40.22864         0.60279
C         36.54884        39.53233         0.71458
C         37.77281        41.65072         0.50612
C         36.52884        42.34681         0.56475
C         37.72367        44.42200        -0.09945
C         36.51278        43.74253         0.21573
C         37.72923        45.77647        -0.59928
C         36.40771        46.26955        -0.78052
C         40.35257        24.69377        -0.87106
C         39.29318        25.30345        -1.11022
C         40.48287        27.43329        -0.82679
C         39.18546        26.74446        -1.32251
C         40.36923        28.85241        -0.43971
C         39.13022        29.55656        -0.53179
C         40.29511        31.64268         0.03327
C         39.08913        30.92708        -0.19909
C         40.29329        33.07363         0.15974
C         39.03661        33.79733         0.12367
C         40.27086        35.93490         0.42134
C         39.04526        35.22439         0.26162
C         40.24964        37.33227         0.61005
C         39.02828        38.06378         0.63122
C         40.22952        40.24919         0.65748
C         39.03185        39.52033         0.63965
C         40.24921        41.67266         0.44647
C         39.00524        42.36760         0.34625
C         40.22073        44.49170        -0.04062
C         38.99379        43.76932         0.07470
C         40.21324        45.87521        -0.48887
C         38.93156        46.45601        -0.83798
C         40.13280        48.40779        -1.64104
C         39.09856        47.74185        -1.40021
C         42.78499        24.57547         0.08798
C         41.58455        25.19910        -0.35832
C         42.75460        27.34130         0.22167
C         41.62376        26.62788        -0.30769
C         42.74451        28.76339         0.30423
C         41.54233        29.50895        -0.00020
C         42.74671        31.63539         0.36298
C         41.52624        30.92879         0.13338
C         42.73688        33.04414         0.41654
C         41.51931        33.76875         0.30271
C         42.73890        35.93397         0.43321
C         41.53293        35.22632         0.39977
C         42.79270        37.34449         0.67072
C         41.50611        38.02707         0.93611
C         42.77571        40.28550         0.95559
C         41.47895        39.54773         1.00687
C         42.79013        41.65970         0.28778
C         41.47078        42.40777         0.39742
C         42.69149        44.60176         0.34316
C         41.44998        43.80271         0.20112
C         42.66626        46.05045        -0.11449
C         41.41000        46.61851        -0.67346
C         42.71816        48.49289        -1.43315
C         41.42604        47.93196        -1.29538
C         43.77732        25.22532         0.48112
C         45.12392        27.29051         1.00273
C         43.97350        26.62750         0.61231
C         45.12906        28.80232         1.27842
C         43.92849        29.49104         0.66215
C         45.25715        31.57824         0.48363
C         43.95422        30.87552         0.57771
C         45.26910        33.06964         0.40390
C         43.99837        33.80762         0.76172
C         45.28531        35.93845         0.38876
C         44.00756        35.18684         0.09819
C         45.26694        37.34779         0.43757
C         44.00778        38.03829         0.64925
C         45.31279        40.21562         0.50455
C         44.06736        39.49775         0.84476
C         45.32619        41.67113         0.71690
C         44.02505        42.43276         0.76421
C         45.29426        44.60173         0.18407
C         44.02472        43.91792         0.56551
C         45.21013        45.98792        -0.21919
C         43.99226        46.67169        -0.42829
C         43.76617        47.89489        -1.05126
C         47.53313        27.37466         1.39163
C         46.42800        26.80730         1.21583
C         47.70323        28.79004         1.15506
C         46.47578        29.49114         1.01814
C         47.74274        31.60821         0.74571
C         46.52106        30.87766         0.76906
C         47.74705        33.05993         0.64441
C         46.55076        33.78605         0.56993
C         47.72587        35.95564         0.44565
C         46.51812        35.23199         0.48320
C         47.72145        37.36046         0.25505
C         46.49282        38.07580         0.32616
C         47.74707        40.22703         0.01354
C         46.50376        39.52299         0.28950
C         47.77978        41.63320        -0.07052
C         46.61289        42.42726         0.39282
C         47.72833        44.49490        -0.36904
C         46.51236        43.88016         0.07897
C         47.56138        45.87752        -0.61302
C         46.48274        46.50996        -0.56074
C         50.23425        28.93061         1.05733
C         48.93407        29.47366         1.03608
C         50.24084        31.61191         0.78631
C         48.98410        30.90978         0.87086
C         50.21587        33.06567         0.74249
C         49.01452        33.75198         0.68212
C         50.14755        35.88131        -0.07687
C         49.03425        35.26862         0.74731
C         50.14373        37.26829        -0.27753
C         48.95209        38.05870        -0.04292
C         50.14544        40.14923        -0.65240
C         48.95151        39.46681        -0.23357
C         50.16239        41.57538        -0.80847
C         48.96513        42.31421        -0.49694
C         50.15264        44.25731        -1.03737
C         48.91882        43.75050        -0.60135
C         51.35321        29.49083         0.93059
C         52.61742        31.74427         0.58835
C         51.48754        30.88391         0.76369
C         52.62670        32.97407         0.46622
C         51.50773        33.94535         0.68430
C         52.45057        35.81815        -0.81521
C         51.28655        34.92869        -0.48212
C         52.39436        37.04496        -0.96688
C         51.32561        37.96871        -0.75678
C         52.40231        40.16600        -1.35846
C         51.32376        39.34865        -0.92860
C         52.46682        41.40528        -1.50640
C         51.37334        42.27471        -1.24824
C         51.23228        43.67281        -1.32080
O         43.56090        40.07212         2.13677
O         46.24840        42.08718         1.76888
O         42.95223        41.45566        -1.09919
O         34.62232        35.29789         1.70212
O         45.25897        32.29535        -0.82835
O         43.95523        43.29664         1.91161
O         41.38476        38.73935         2.21666
O         32.73625        40.95468         2.74560
O         42.52614        45.70134         1.30160
O         40.17161        27.22664        -2.25881
O         33.99905        38.76500        -0.86227
H         33.94796        38.04063        -1.52057
O         43.99229        34.94958        -1.33832
H         44.01446        35.81632        -1.79440
O         37.55431        31.32477         1.53464
H         36.76015        31.82842         1.81631
O         34.40606        38.89790         2.73722
H         34.12991        39.58355         3.38472
O         44.91365        28.92928         2.72044
H         45.64358        28.45450         3.17350
O         34.46216        42.92366         2.73135
H         34.02792        42.30206         3.35956
O         44.03679        33.97980         2.19821
H         43.24202        34.48453         2.47326
O         51.70758        34.69413         1.85824
H         51.77485        34.09056         2.62541
O         50.90442        34.15602        -1.61114
H         50.83556        34.74104        -2.39345
O         49.30495        35.58657         2.15653
H         49.35208        36.56242         2.24346
