         424
 CSIRO Nanostructure Databank - Neutral Graphene Oxide Data Set
C          1.21682         3.44519         0.64262
C          0.03538         4.14769         0.73352
C          1.19795         6.27570         1.11633
C          0.03053         5.55941         0.88413
C          1.20063         7.76331         0.71721
C         -0.04227         8.57487         0.98907
C          1.13770        10.60722         0.23773
C         -0.05574         9.89421         0.65457
C          1.13121        11.98689        -0.14752
C         -0.08286        12.68257        -0.38295
C          1.10800        14.78698        -0.66255
C         -0.08837        14.04246        -0.64227
C          1.06296        16.26493        -0.78091
C         -0.10151        17.00600        -1.29165
C          1.12916        19.13857        -1.28646
C         -0.06837        18.37984        -1.40272
C          1.14592        20.56965        -1.18150
C         -0.06959        21.32110        -1.09459
C          1.15524        23.43301        -0.95779
C         -0.05998        22.69375        -1.01996
C          1.17638        24.87049        -0.87713
C         -0.03915        25.61500        -0.81392
C          1.17979        27.71546        -0.58574
C         -0.03614        26.97962        -0.66869
C          1.17685        29.13959        -0.39780
C         -0.03921        29.87002        -0.28234
C          1.16819        31.97583        -0.02734
C         -0.04253        31.23227        -0.09415
C          1.15273        33.40258         0.12581
C         -0.02261        34.14416         0.29061
C          1.19944        36.25633         0.55410
C         -0.01168        35.53729         0.44360
C          1.21200        37.66399         0.82968
C          3.71624         3.50109         0.72253
C          2.45761         4.12364         0.84337
C          3.63835         6.07309         1.64427
C          2.41447         5.50915         1.21475
C          3.61044         8.23130         1.56168
C          2.40620         8.64768         0.99072
C          3.63203        10.65941         0.30761
C          2.39109         9.96177         0.45535
C          3.62275        12.02848        -0.08227
C          2.36773        12.70566        -0.26934
C          3.60925        14.82875        -0.58313
C          2.34942        14.11310        -0.50467
C          3.63239        16.22948        -0.77540
C          2.37268        17.00467        -0.81145
C          3.67131        19.10229        -1.09097
C          2.41580        18.36409        -1.47965
C          3.66731        20.59173        -1.38362
C          2.36547        21.29163        -1.10959
C          3.61762        23.43393        -0.79862
C          2.38576        22.70589        -0.94964
C          3.64551        24.83368        -0.81477
C          2.40959        25.57518        -0.84522
C          3.64071        27.73105        -0.63402
C          2.41636        27.01080        -0.70449
C          3.65132        29.12502        -0.40027
C          2.40935        29.85025        -0.29806
C          3.65926        31.96526         0.04622
C          2.40718        31.26460        -0.12161
C          3.67851        33.36666         0.22442
C          2.43977        34.15645        -0.10293
C          3.64532        36.22250         0.68943
C          2.43811        35.55828         0.45086
C          3.65089        37.64517         0.93278
C          2.39318        38.33788         0.98393
C          6.17722         3.60541         0.68262
C          4.93158         4.22632         0.85896
C          6.11879         6.41512         1.38377
C          4.90766         5.60950         1.28616
C          6.12527         7.97610         1.63919
C          4.86793         8.72065         1.19816
C          6.10568        10.67952         0.35082
C          4.87160         9.98843         0.56224
C          6.09070        12.03372         0.00569
C          4.86202        12.71997        -0.21147
C          6.07225        14.84244        -0.65598
C          4.85074        14.13575        -0.49747
C          6.08642        16.24145        -0.75413
C          4.84355        16.94147        -0.79248
C          6.09372        19.10045        -0.45788
C          4.81575        18.40008        -0.84342
C          6.09242        20.52640        -0.95164
C          4.84615        21.26553        -0.78268
C          6.16242        23.40571        -0.72697
C          4.86437        22.69599        -0.36993
C          6.12667        24.86505        -0.73932
C          4.91682        25.54042        -0.76905
C          6.16105        27.71572        -0.46922
C          4.92553        27.03272        -1.00725
C          6.13859        29.10302        -0.20791
C          4.89271        29.82822        -0.21301
C          6.11210        31.91599         0.31602
C          4.88539        31.22351         0.05685
C          6.08120        33.29753         0.61985
C          4.87877        34.04127         0.54952
C          6.07137        36.18688         0.98522
C          4.89148        35.49175         0.74305
C          6.10247        37.62915         1.06489
C          4.86060        38.32704         1.07520
C          8.59173         3.67130         0.63241
C          7.38382         4.32802         0.87377
C          8.62278         6.44373         1.44233
C          7.32824         5.74344         1.24480
C          8.64597         7.94094         1.21660
C          7.36014         8.63880         1.00871
C          8.57211        10.60830         0.08741
C          7.35600         9.94366         0.51925
C          8.61377        11.98246        -0.19082
C          7.37729        12.82441         0.07674
C          8.61264        14.83767        -0.72378
C          7.33782        14.03963        -0.85000
C          8.61155        16.23690        -0.79136
C          7.35577        16.96996        -0.81074
C          8.59998        19.10072        -0.76838
C          7.36107        18.35289        -0.80221
C          8.60098        20.49033        -0.75471
C          7.37452        21.25819        -1.01817
C          8.64759        23.45542        -1.12150
C          7.33882        22.73498        -0.90300
C          8.61031        24.90203        -0.69731
C          7.39387        25.58300        -0.66737
C          8.60304        27.67477        -0.12073
C          7.37818        27.00269        -0.42602
C          8.57470        29.05551         0.16299
C          7.36550        29.77767         0.10189
C          8.58620        31.90497         0.40935
C          7.36169        31.20473         0.31824
C          8.60457        33.32126         0.64222
C          7.33483        33.96110         1.01464
C          8.61344        36.18369         1.07922
C          7.33626        35.46895         1.20600
C          8.59737        37.63571         1.11076
C          7.32864        38.30495         1.14352
C         11.12399         3.60295         0.63126
C          9.86659         4.42923         0.47354
C         11.16180         6.43162         1.08384
C          9.91383         5.63072         1.41927
C         11.10239         7.84915         0.73249
C          9.89322         8.53149         0.69820
C         11.08785        10.46450        -0.49979
C          9.80303         9.79864        -0.03681
C         11.06879        11.92122        -0.93816
C          9.80821        12.66872        -0.54146
C         11.08453        14.78489        -0.76880
C          9.83224        14.09186        -0.67007
C         11.10652        16.23810        -0.75413
C          9.84913        16.96664        -0.73158
C         11.07671        19.11561        -0.54256
C          9.85481        18.37946        -0.67273
C         11.10079        20.50929        -0.44570
C          9.81941        21.23017        -0.42238
C         11.11510        23.42501        -0.50427
C          9.81388        22.72873        -0.47395
C         11.10119        24.83623        -0.45776
C          9.85145        25.56873        -0.44595
C         11.09347        27.64473         0.05345
C          9.85148        26.95117        -0.14317
C         11.10408        29.04073         0.32960
C          9.81402        29.72881         0.69662
C         11.03819        31.89187         0.35975
C          9.84356        31.20473         0.40655
C         11.02531        33.36658         0.05056
C          9.78545        34.05365         0.59953
C         11.08434        36.16755         0.96376
C          9.78893        35.46521         0.86725
C         11.08610        37.69963         1.08031
C          9.78591        38.35841         1.05576
C         13.59000         3.54377         0.81514
C         12.32712         4.24187         0.84435
C         13.57945         6.39588         0.51953
C         12.31588         5.71108         0.94102
C         13.58930         7.88189         0.86695
C         12.32622         8.54307         0.38988
C         13.59840        10.59908        -0.12978
C         12.35563         9.84941        -0.06205
C         13.58819        11.98103        -0.44728
C         12.34377        12.67046        -0.62082
C         13.56928        14.79534        -1.09992
C         12.30900        14.06239        -0.72083
C         13.61060        16.21285        -0.55040
C         12.30578        16.93856        -0.69984
C         13.60781        19.11971        -0.60617
C         12.34367        18.36872        -0.24408
C         13.57404        20.54382        -0.55756
C         12.32930        21.24759        -0.43686
C         13.57087        23.39178        -0.47055
C         12.32240        22.68050        -0.45673
C         13.56608        24.82098        -0.33799
C         12.33676        25.53548        -0.30003
C         13.56436        27.64592         0.07448
C         12.33216        26.94807        -0.07758
C         13.56615        29.05848         0.31474
C         12.30669        29.74974         0.41724
C         13.49177        31.91506         0.60834
C         12.30351        31.20544         0.49076
C         13.49627        33.36835         0.59140
C         12.31406        34.06482         0.40180
C         13.56523        36.24186         0.67586
C         12.29403        35.55955         0.27393
C         13.55324        37.67785         0.73361
C         12.32818        38.38675         0.74205
C         16.07252         3.54651         0.95052
C         14.82436         4.19608         0.86163
C         16.08340         6.32257         0.35049
C         14.85263         5.70046         1.03923
C         16.07119         7.83334         0.44794
C         14.86744         8.53835         0.41362
C         16.08026        10.62635        -0.00327
C         14.84318         9.93194         0.11931
C         16.07357        12.02997        -0.28177
C         14.84239        12.70803        -0.49613
C         16.06947        14.82559        -0.76022
C         14.86446        14.10552        -0.74569
C         16.13124        16.34651        -0.68432
C         14.81354        16.97430        -1.15518
C         16.03036        19.14970        -1.11674
C         14.80370        18.45427        -0.86409
C         16.00239        20.55273        -1.00870
C         14.79507        21.25704        -0.72985
C         16.03360        23.41836        -0.58690
C         14.78975        22.69114        -0.61457
C         16.03381        24.82567        -0.30812
C         14.79905        25.52774        -0.20881
C         16.03301        27.64254         0.15134
C         14.79961        26.94085         0.00187
C         16.02485        29.05999         0.39766
C         14.78200        29.74916         0.48497
C         16.01524        31.93678         0.60084
C         14.76395        31.18201         0.95791
C         15.98923        33.35915         0.62700
C         14.75758        34.07828         0.69901
C         16.01832        36.21483         0.85781
C         14.77166        35.51294         0.74765
C         16.02599        37.66370         0.82513
C         14.79433        38.35954         0.75585
C         18.53382         3.61479         1.38089
C         17.30010         4.27293         1.07369
C         18.53220         6.41099         0.90804
C         17.33404         5.67501         0.86434
C         18.54627         7.82725         0.62259
C         17.31330         8.52775         0.39011
C         18.55562        10.64321         0.10618
C         17.31076         9.93554         0.18879
C         18.54911        12.03408        -0.21872
C         17.30670        12.73513        -0.38951
C         18.52757        14.81907        -0.97576
C         17.30162        14.13294        -0.64190
C         18.48546        16.14511        -1.54247
C         17.31584        17.01280        -1.38109
C         18.44007        19.25015        -1.80700
C         17.26116        18.40902        -1.50277
C         18.47986        20.62657        -1.44892
C         17.18149        21.37896        -1.44191
C         18.48056        23.43754        -0.72503
C         17.24188        22.75414        -0.83707
C         18.49540        24.82244        -0.35430
C         17.26422        25.52533        -0.19154
C         18.49974        27.63801         0.21705
C         17.26399        26.93877         0.06080
C         18.49304        29.05200         0.45705
C         17.25488        29.76061         0.53946
C         18.46434        31.91144         0.59463
C         17.25660        31.21821         0.58439
C         18.47444        33.36365         0.20754
C         17.21738        34.09181         0.59730
C         18.52571        36.16316         0.99623
C         17.23245        35.48044         0.78338
C         18.51924        37.75054         0.97167
C         17.23520        38.38026         0.74788
C         19.71135         4.32350         1.46120
C         20.95733         6.47332         1.23914
C         19.74911         5.73012         1.21885
C         20.96719         7.82432         0.94721
C         19.77350         8.53539         0.63095
C         20.98527        10.69580         0.20252
C         19.78332         9.95518         0.31719
C         20.98019        12.02947        -0.16991
C         19.77111        12.72486        -0.41365
C         20.91108        14.61886        -1.53418
C         19.74655        14.08157        -0.93833
C         20.82842        15.78957        -2.26857
C         19.62127        16.50457        -2.29265
C         20.81557        19.47181        -2.45550
C         19.60850        18.76437        -2.43233
C         20.87772        20.73445        -1.88158
C         19.69209        21.35735        -1.43619
C         20.90906        23.45621        -0.81685
C         19.70884        22.75608        -0.99470
C         20.92497        24.79573        -0.42225
C         19.73631        25.51094        -0.20533
C         20.93095        27.63234         0.35167
C         19.73750        26.92954         0.12866
C         20.92138        29.00885         0.60141
C         19.73289        29.73779         0.61341
C         20.93605        31.94883         0.32085
C         19.75819        31.22001         0.92318
C         20.95502        33.30801         0.23782
C         19.77313        34.08902         0.45884
C         20.98135        36.25469         0.64416
C         19.79671        35.48601         0.65513
C         20.95549        37.66473         0.61301
C         19.78339        38.39162         0.64560
O          9.56656        22.08070         0.80474
O         11.30973        36.75869         2.24701
O         10.31393         9.64048        -1.43311
O          8.70719         7.35600         2.59843
O          3.54893         7.18218         2.47632
O         19.55577        17.58269        -3.18348
O          1.63029        16.94649         0.43060
O          7.29979        34.54631         2.35936
O          6.70809        20.73564        -2.29295
O         18.56951        36.93082         2.19959
O         12.08292        35.88178        -1.17119
H         12.92577        35.68589        -1.63471
O         13.80868        16.06493         0.89239
H         13.41109        16.87074         1.32149
O         13.54490         8.03909         2.32998
H         13.67110         8.99100         2.52861
O         14.77481        31.10351         2.44237
H         14.01978        30.53707         2.70948
O         11.04781        11.90956        -2.40909
H         10.50668        11.12328        -2.66100
O         16.93509        21.64281        -2.88480
H         16.85432        20.77073        -3.32837
O         13.46311        14.83082        -2.55598
H         13.26674        13.91778        -2.85754
O         18.40369        33.32728        -1.28678
H         18.42074        34.25715        -1.60036
O         13.54522         6.34980        -0.94158
H         13.12941         5.50333        -1.21035
O          7.48020        13.33922         1.43423
H          7.40277        12.58255         2.05250
O          6.21206         8.16845         3.07260
H          7.09417         7.81769         3.34976
O         15.01054         5.87108         2.46400
H         14.55912         6.70270         2.74693
O          6.09141        19.20750         0.99879
H          5.98875        18.30554         1.36911
O          4.82362        22.73280         1.11351
H          4.95679        23.66537         1.38763
O          5.01957        27.17364        -2.48101
H          5.00341        28.13418        -2.68075
O          2.50044        34.33955        -1.57949
H          1.69926        34.84603        -1.83413
O          1.24423         7.61253        -0.76056
H          1.17349         8.51299        -1.14609
O         12.38201        18.30392         1.26138
H         11.47004        18.09884         1.56311
O          3.84069        20.66355        -2.86988
H          4.81341        20.66316        -3.04250
O          9.87137         4.97569        -0.89371
H          9.69672         4.23603        -1.51275
O          7.28662        13.50970        -2.20724
H          7.33603        14.26421        -2.83045
O         16.34812        16.64985         0.71985
H         15.54629        16.32114         1.20062
O          2.53511        18.13119        -2.92138
H          2.85147        18.98205        -3.31375
O         16.10261         6.01480        -1.07213
H         15.25518         6.35371        -1.45356
O          8.93654        23.42196        -2.55337
H          8.18437        23.83944        -3.02366
O         14.81874        16.89453        -2.59875
H         13.89358        16.90909        -2.92203
O         10.06662         5.08753         2.74949
H          9.92215         5.82837         3.37826
O         10.89327        33.45567        -1.41807
H         11.07748        34.40011        -1.65249
O         19.91219        31.33040         2.38839
H         20.62969        30.71858         2.65763
O          9.70367        29.60370         2.16430
H         10.42611        30.13575         2.56031
H          1.21651         2.37171         0.40582
H         -0.92241         3.62942         0.58201
H         -0.92291         6.08962         0.74800
H         -0.96339         8.09212         1.34677
H         -0.99113        10.46146         0.76919
H         -1.03898        12.14399        -0.33985
H         -1.04979        14.55384        -0.78897
H         -1.04053        16.47133        -1.49318
H         -1.01553        18.89965        -1.61309
H         -1.03571        20.79973        -1.12308
H         -1.02410        23.21879        -1.00216
H         -1.00494        25.09605        -0.86171
H         -1.00075        27.49942        -0.60846
H         -1.00400        29.35067        -0.34360
H         -1.00797        31.74939        -0.01642
H         -0.99523        33.63393         0.33130
H         -0.96444        36.07374         0.55813
H          0.25247        38.19706         0.89883
H          3.76732         2.42644         0.49427
H          2.39549        39.42173         1.17053
H          6.22712         2.55324         0.36593
H          4.85919        39.41920         1.20816
H          8.56624         2.60606         0.35260
H          7.32383        39.40397         1.19952
H         11.09218         2.51785         0.44592
H          9.75191        39.45228         0.94105
H         13.56541         2.44506         0.73520
H         12.32800        39.48165         0.63850
H         16.10765         2.44562         0.98068
H         14.80335        39.45978         0.75817
H         18.53157         2.52863         1.55463
H         17.20988        39.44590         0.47541
H         20.65144         3.80310         1.69688
H         21.89958         5.95941         1.47959
H         21.92714         8.35804         0.97056
H         21.95243        10.20642         0.38000
H         21.94294        12.54985        -0.26530
H         21.85512        14.05924        -1.51769
H         21.68529        16.15794        -2.84705
H         21.69500        19.02582        -2.93739
H         21.83235        21.27552        -1.88504
H         21.87347        22.95940        -0.98624
H         21.89900        25.29021        -0.30872
H         21.89814        27.11348         0.32837
H         21.88221        29.51465         0.77538
H         21.85057        31.38738         0.07939
H         21.89725        33.81564        -0.02099
H         21.94757        35.75280         0.50283
H         21.90488        38.19428         0.44684
H         19.78473        39.46286         0.39909
