         424
 CSIRO Nanostructure Databank - Neutral Graphene Oxide Data Set
C          1.78553         2.06089         2.39995
C          1.88246         3.32689         2.92315
C          2.89346         1.41397         1.81404
C          3.18881         4.05943         2.98350
C          1.90052         6.17095         2.36270
C          1.83847         7.56588         2.16961
C          3.08695         5.52894         2.65100
C          3.00873         8.36673         2.12026
C          1.73707        10.50573         1.86305
C          1.70218        11.88288         1.76449
C          2.96351         9.80499         1.93706
C          2.89324        12.65489         1.74163
C          1.63465        14.81445         1.62549
C          1.60719        16.19628         1.54894
C          2.85578        14.09867         1.66650
C          2.80827        16.94454         1.48795
C          2.77730        18.37487         1.33562
C          4.12935         2.09880         1.65778
C          4.25729         3.44707         2.11058
C          5.24402         1.44659         1.07358
C          5.44257         4.18007         1.80607
C          4.37275         6.30733         2.69421
C          4.26479         7.73168         2.22320
C          5.52742         5.57698         2.04238
C          5.46892         8.44926         2.00079
C          4.17945        10.55073         1.88285
C          4.14116        11.97706         1.79363
C          5.43699         9.86918         1.88089
C          5.37528        12.72373         1.79233
C          4.08737        14.82989         1.65728
C          4.05173        16.26854         1.54911
C          5.32396        14.14779         1.73455
C          5.26457        17.02106         1.41274
C          3.92768        19.09443         1.18528
C          5.21076        18.44268         1.18964
C          6.47954         2.10382         0.87829
C          6.56023         3.51981         1.19412
C          7.61047         1.38968         0.44184
C          7.76006         4.23021         1.00970
C          6.70043         6.30256         1.75240
C          6.70384         7.74613         1.82126
C          7.86442         5.61181         1.30406
C          7.89555         8.47364         1.56471
C          6.66908        10.60223         1.81016
C          6.61654        12.02926         1.83225
C          7.89540         9.88765         1.66835
C          7.87943        12.79850         1.80953
C          6.58889        14.94942         1.93738
C          6.51208        16.36979         1.44965
C          7.82739        14.23493         1.47843
C          7.70096        17.07533         1.17147
C          6.39300        19.15957         1.00051
C          7.65144        18.50200         0.95837
C          8.85413         2.04824         0.09627
C          8.91548         3.57983         0.36174
C         10.13299         1.37571        -0.03601
C         10.27416         4.16918         0.65556
C          9.07865         6.35170         1.00961
C          9.09869         7.76919         1.15506
C         10.23335         5.67378         0.55927
C         10.26403         8.49378         0.77233
C          9.25293        10.55512         1.79502
C          9.19363        12.07898         1.70319
C         10.30972         9.91804         0.91774
C         10.30105        12.80370         1.03559
C          8.98620        14.93658         1.18012
C          8.94981        16.38565         1.05227
C         10.22570        14.24136         0.91679
C         10.12479        17.10474         0.76285
C          8.84535        19.21150         0.72935
C         10.08761        18.54354         0.63422
C         11.31251         2.09857        -0.33884
C         11.36883         3.51810        -0.14740
C         12.47824         1.43409        -0.80235
C         12.50978         4.25326        -0.50741
C         11.38336         6.38447         0.13892
C         11.38512         7.80946         0.21160
C         12.53242         5.69145        -0.37232
C         12.52085         8.53727        -0.26690
C         11.40389        10.65510         0.45823
C         11.37409        12.09961         0.51673
C         12.53946         9.98399        -0.15627
C         12.47668        12.84511        -0.19165
C         11.37631        14.97927         0.55890
C         11.36288        16.41441         0.55330
C         12.58266        14.29785         0.20720
C         12.54947        17.12808         0.27722
C         11.28492        19.24298         0.36969
C         12.51274        18.56629         0.19424
C         13.63008         2.15455        -1.14622
C         13.65194         3.58037        -1.04122
C         14.79855         1.48651        -1.63583
C         14.81967         4.31539        -1.41728
C         13.65805         6.42213        -0.82134
C         13.63069         7.84806        -0.78344
C         14.82478         5.73156        -1.31994
C         14.70781         8.61158        -1.50432
C         13.69564        10.69344        -0.50593
C         13.80763        12.12318        -0.03497
C         14.84081        10.04883        -1.06511
C         14.90792        12.92622        -0.67262
C         13.77885        14.98399         0.03691
C         13.79165        16.43355         0.06885
C         14.95974        14.27155        -0.43825
C         14.95213        17.14989        -0.24998
C         13.70308        19.26477        -0.11600
C         14.90776        18.58184        -0.36268
C         15.92821         2.18207        -1.99553
C         15.98233         3.61545        -1.89137
C         17.08516         1.40708        -2.57100
C         17.17517         4.32521        -2.20025
C         16.01498         6.46634        -1.66056
C         16.02029         7.87963        -1.61482
C         17.20483         5.76503        -2.05742
C         17.20473         8.60847        -1.86320
C         16.00024        10.74952        -1.38927
C         15.89127        12.24686        -1.59133
C         17.20550        10.05290        -1.78309
C         17.19081        12.98736        -1.72066
C         16.31178        14.94405        -0.47272
C         16.32011        16.49529        -0.32400
C         17.23736        14.35918        -1.52006
C         17.13179        17.18120        -1.45060
C         16.09473        19.30922        -0.70275
C         17.25057        18.66420        -1.15368
C         18.39137         2.16155        -2.56337
C         18.37872         3.61605        -2.52201
C         19.54726         1.46640        -2.71124
C         19.60203         4.31327        -2.66689
C         18.38237         6.49620        -2.31581
C         18.41165         7.90511        -2.18683
C         19.57902         5.79974        -2.91331
C         19.62319         8.64636        -2.43711
C         18.39988        10.75452        -2.01958
C         18.47969        12.22665        -1.67803
C         19.58710        10.05053        -2.37030
C         19.64776        12.98104        -2.27011
C         18.45293        15.09076        -1.79842
C         18.45601        16.50232        -1.70356
C         19.61054        14.38605        -2.24195
C         19.64115        17.25065        -1.88374
C         18.45647        19.35364        -1.35893
C         19.66334        18.68650        -1.70153
C         20.85730         2.14181        -2.96165
C         20.82615         3.62491        -2.70142
C         22.04452         1.46280        -2.35348
C         22.06038         4.31949        -2.57157
C         20.89070         6.48967        -2.63697
C         20.88955         7.93867        -2.62755
C         22.08137         5.76757        -2.57961
C         22.09722         8.61176        -2.72363
C         20.80299        10.81240        -2.72888
C         20.85642        12.27609        -2.50174
C         22.10108        10.07118        -2.91941
C         22.09664        12.93121        -2.47012
C         20.79231        15.17344        -2.58253
C         20.85497        16.58966        -2.23194
C         22.13787        14.39244        -2.57750
C         22.09545        17.26085        -2.24373
C         20.89095        19.37019        -1.81006
C         22.11938        18.69334        -2.01192
C         23.21985         2.16165        -2.16363
C         23.26119         3.60500        -2.32517
C         24.43883         1.47765        -1.83075
C         24.49428         4.30052        -2.14623
C         23.37110         6.43054        -2.58966
C         23.39933         7.88330        -2.99312
C         24.54085         5.72849        -2.39312
C         24.61773         8.59008        -2.43748
C         23.40102        10.82072        -2.79543
C         23.34511        12.23684        -2.38503
C         24.68988        10.05411        -2.56359
C         24.49283        12.88765        -1.90686
C         23.31305        15.12697        -2.16147
C         23.32375        16.51107        -2.19971
C         24.35459        14.32332        -1.41665
C         24.65945        17.21835        -2.13986
C         23.35425        19.37719        -1.89350
C         24.59499        18.70397        -1.85852
C         25.61790         2.16340        -1.66021
C         25.65884         3.59242        -1.77203
C         26.90602         1.40580        -1.46143
C         26.89566         4.30896        -1.47680
C         25.91206         6.34914        -2.62908
C         25.89166         7.88507        -2.49981
C         27.00094         5.66791        -1.80086
C         27.12968         8.66592        -2.02514
C         25.81827        10.77927        -1.92862
C         25.67914        12.15441        -1.61517
C         26.98192        10.06247        -1.55721
C         26.77660        12.80764        -0.87881
C         25.65307        15.06133        -1.32129
C         25.59965        16.54804        -1.13681
C         26.78146        14.35134        -0.76822
C         26.96590        17.18974        -1.16254
C         25.80519        19.33919        -1.58880
C         27.02770        18.59931        -1.35967
C         27.82379         2.14966        -0.48389
C         28.00006         3.59568        -0.89622
C         29.13120         1.42402        -0.31460
C         29.21586         4.24834        -0.59817
C         28.27552         6.34888        -1.56361
C         28.34824         7.90162        -1.61896
C         29.33236         5.65987        -0.81445
C         29.35880         8.55408        -0.77175
C         28.10270        10.71589        -0.96272
C         28.06376        12.11933        -0.73030
C         29.27877         9.98817        -0.56379
C         29.20545        12.83899        -0.31596
C         28.07053        15.02717        -0.62550
C         28.12738        16.44540        -0.84624
C         29.22835        14.28557        -0.32108
C         29.38154        17.11234        -0.71463
C         28.27250        19.24852        -1.25823
C         29.45422        18.52940        -0.93610
C         30.30546         2.07360        -0.10669
C         30.35341         3.52251        -0.11720
C         31.61211         1.31928         0.02673
C         31.55329         4.20715         0.23011
C         30.46242         6.36380        -0.37758
C         30.42708         7.80066        -0.28913
C         31.60814         5.64299         0.13430
C         31.49666         8.45454         0.48657
C         30.36307        10.69442        -0.01812
C         30.40104        12.12307         0.02061
C         31.49278         9.96553         0.56846
C         31.58048        12.81103         0.41260
C         30.46762        14.96718        -0.11150
C         30.54065        16.37904        -0.31825
C         31.63125        14.24655         0.31732
C         31.77971        17.05413        -0.14377
C         30.70389        19.17516        -0.80889
C         31.86280        18.46286        -0.41574
C         32.53132         2.02180         1.04363
C         32.68217         3.49049         0.71578
C         33.84187         1.31474         1.22174
C         33.89473         4.16166         0.98001
C         32.78582         6.32521         0.49083
C         32.79462         7.76688         0.61173
C         33.96275         5.59434         0.85851
C         33.93587         8.47240         0.93167
C         32.76750        10.66190         0.77062
C         32.78628        12.07804         0.75280
C         33.93931         9.91936         1.05416
C         33.98540        12.75390         1.07702
C         32.82517        14.94418         0.60523
C         32.92433        16.34585         0.35074
C         33.94418        14.23469         1.33389
C         34.14216        17.04315         0.55995
C         33.11029        19.10933        -0.28883
C         34.25404        18.41490         0.17376
C         35.03556         1.98928         1.41650
C         35.07297         3.43915         1.34545
C         36.25378         1.28828         1.70028
C         36.28018         4.12958         1.59556
C         35.15960         6.27745         1.13854
C         35.26025         7.75758         0.86998
C         36.32330         5.56557         1.51657
C         36.36307         8.41853         1.64605
C         35.12947        10.61272         1.38581
C         35.16143        12.02772         1.38303
C         36.24262         9.85689         2.06078
C         36.41846        12.72862         1.63347
C         35.28838        14.89742         1.21744
C         35.28965        16.39820         1.29227
C         36.46340        14.16959         1.45746
C         36.62172        16.99433         0.94811
C         35.51222        19.07061         0.21751
C         36.70037        18.35003         0.51105
C         37.44309         1.96832         1.94910
C         37.47090         3.40855         1.91330
C         38.66376         1.26619         2.25335
C         38.67361         4.10774         2.18576
C         37.52853         6.26326         1.83087
C         37.50928         7.71062         1.94244
C         38.69869         5.54333         2.17254
C         38.71546         8.40696         2.36107
C         37.56780        10.57691         2.09825
C         37.58649        12.01995         1.96392
C         38.70932         9.85493         2.39689
C         38.85044        12.71087         2.08781
C         37.73133        14.84382         1.52253
C         37.80193        16.25822         1.20862
C         38.92270        14.11495         1.81355
C         39.05837        16.89736         1.09763
C         37.96891        18.93773         0.29875
C         39.15360        18.22478         0.57750
C         39.82106         1.94388         2.51716
C         39.86245         3.37980         2.50093
C         41.04117         4.09070         2.79827
C         39.90915         6.24040         2.49745
C         39.90685         7.68799         2.53026
C         41.06071         5.48317         2.80156
C         41.15481         8.42549         2.64056
C         39.92777        10.56979         2.93741
C         40.01900        12.01391         2.49260
C         41.18882         9.77053         2.73482
C         41.22044        12.70746         2.62212
C         40.18355        14.78033         1.89615
C         40.29774        16.26861         1.67162
C         41.30362        14.07367         2.31267
C         41.53637        16.69973         0.93241
C         40.43813        18.76378         0.26708
C         41.58584        17.94684         0.35560
O         28.85149         7.09185        -2.71037
O          8.69672         3.12261        -0.95370
O         31.06408         9.12460         1.71567
O         21.30169        10.48777        -4.08479
O         24.31212        10.57200        -3.92142
O         26.83178         8.53344        -3.45198
O         21.49950        14.84990        -3.81026
O          8.77601        12.61979         3.01180
O         17.04623        14.37545         0.63159
O         26.37968        13.46456         0.38063
O         16.33485        17.03199        -2.66027
H         16.84051        17.40867        -3.41022
O         17.21848         0.13451        -1.92724
H         17.42895         0.28944        -0.98391
O         25.02877        16.80888         0.18589
H         25.47373        16.22095         0.83206
O         10.53582         3.84886         2.06517
H         11.36428         4.30396         2.32601
O         25.27306        17.04644        -3.44700
H         24.65789        17.39971        -4.12289
O         18.75297        12.25200        -0.21333
H         18.22452        13.00936         0.18964
O          6.74344        15.05687         3.40912
H          7.21860        14.25339         3.71648
O         14.12937        12.05516         1.38707
H         14.93241        12.59538         1.55239
O          9.69361        10.23113         3.15332
H          9.35006        10.95182         3.73250
O         23.56708         7.91689        -4.44705
H         23.75121         8.85872        -4.68962
O         35.81619         9.80411         3.48337
H         35.72782        10.73091         3.79454
O         39.72371        10.63152         4.39593
H         39.56459         9.71433         4.70524
O         15.25867        12.36488        -2.92377
H         14.32100        12.08323        -2.83256
O         16.95266        16.81212         0.92707
H         17.22806        15.91940         1.29371
O         33.58489        14.37776         2.76748
H         33.85534        15.29689         3.02776
O         14.21833         8.72415        -2.90237
H         14.15937         7.81340        -3.26323
O         35.67725         7.87585        -0.55408
H         36.50526         7.35864        -0.65558
O         26.24715         6.05314        -4.01097
H         26.86843         6.76127        -4.30443
O          4.76249         6.40893         4.11536
H          4.54894         5.53207         4.52675
O         31.81589         1.93228         2.32285
H         32.37144         2.36738         3.00355
O         23.79356        14.19810        -0.05375
H         24.52437        13.82447         0.49999
O         35.04000        16.72346         2.75616
H         35.89046        16.58245         3.22739
O         12.17000        12.82683        -1.62405
H         11.36798        13.37225        -1.76645
O          3.66255         3.96350         4.40160
H          3.84878         3.01652         4.57968
O         27.12651         2.13783         0.80209
H         27.72625         2.53442         1.46852
O         40.41687        16.85693         3.03191
H         40.54073        17.82316         2.91114
O         27.56051         1.25527        -2.72945
H         27.65459         2.14241        -3.13476
O         19.38871         5.93172        -4.37472
H         20.19317         5.57711        -4.81052
O         21.08265         2.01356        -4.43264
H         21.96709         2.39675        -4.62004
O         32.25163         1.25583        -1.25305
H         32.31314         2.16489        -1.61244
H          0.82563         1.52620         2.45300
H          1.02450         3.76098         3.45598
H          2.79881         0.38291         1.44750
H          0.95987         5.60099         2.34381
H          0.84840         8.02686         2.05788
H          0.78652         9.95665         1.89357
H          0.72362        12.37784         1.71605
H          0.67914        14.27428         1.65464
H          0.64336        16.72434         1.51359
H          1.79950        18.87826         1.31827
H          5.14424         0.39283         0.77399
H          3.89031        20.18480         1.04656
H          7.58163         0.29007         0.44546
H          6.35256        20.24995         0.85881
H         10.16879         0.27831         0.02822
H          8.80895        20.30325         0.59743
H         12.46459         0.34138        -0.92515
H         11.25702        20.33878         0.27263
H         14.79103         0.39033        -1.72652
H         13.67681        20.36225        -0.19493
H         16.83826         1.18555        -3.64815
H         16.09208        20.40525        -0.59106
H         19.51078         0.36799        -2.77233
H         18.48710        20.43972        -1.17686
H         22.03754         0.36656        -2.25752
H         20.90839        20.45833        -1.64521
H         24.42297         0.38077        -1.74927
H         23.33509        20.46040        -1.69366
H         26.69782         0.37952        -1.07233
H         25.83710        20.43665        -1.50119
H         29.10634         0.32346        -0.31785
H         28.33401        20.33625        -1.41071
H         31.42372         0.26912         0.35750
H         30.77629        20.25694        -0.99528
H         33.82274         0.21700         1.30070
H         33.19674        20.17555        -0.54553
H         36.23586         0.18889         1.73741
H         35.58261        20.12096        -0.09955
H         38.64626         0.16671         2.27358
H         38.03186        19.96052        -0.10164
H         40.74430         1.39446         2.75310
H         41.95659         3.53425         3.04658
H         41.99796         5.99058         3.06682
H         42.10189         7.87151         2.57475
H         42.16304        10.27633         2.78815
H         42.12206        12.19965         2.98885
H         42.26540        14.58974         2.43695
H         42.44422        16.08304         0.98745
H         40.50786        19.76908        -0.17006
H         42.53309        18.31467        -0.06600
