         297
 CSIRO Nanostructure Databank - Neutral Graphene Oxide Data Set
C         30.64616        31.98057        -1.49221
C         30.66284        33.25662        -1.59447
C         30.75462        36.43058        -1.25411
C         30.79631        37.46897        -1.90382
C         30.54257        40.58196        -1.01532
C         30.36301        41.59688        -0.34553
C         32.63196        28.93076        -0.49789
C         31.66021        29.65292        -0.84341
C         32.85566        31.78213        -0.56436
C         31.51761        31.03710        -0.98374
C         32.57407        33.17318         0.04016
C         31.38281        33.98540        -0.51551
C         32.56943        36.18150         0.39017
C         31.38949        35.47550        -0.35545
C         32.94826        37.56003        -0.13548
C         31.84223        38.53576        -2.03872
C         32.74055        40.15059        -0.02708
C         31.67242        39.63756        -0.99624
C         32.60148        41.52381         0.65739
C         30.94003        42.35795         0.76413
C         32.46478        44.33530         0.85019
C         31.41306        43.74540         0.59977
C         35.30669        27.28415        -0.05718
C         35.05562        28.66030         0.47349
C         34.03016        29.46201        -0.34962
C         35.09260        31.59642         0.64292
C         33.75310        30.90026         0.34447
C         35.09031        33.12554         0.75989
C         33.78986        33.88567         0.54750
C         35.11036        35.98906         1.06559
C         33.94504        35.38097         0.22865
C         35.21307        37.48660         0.88811
C         34.11849        38.18608         0.47605
C         35.21887        40.35249         0.41538
C         34.10680        39.60112         0.20942
C         35.13372        41.81421         0.09170
C         33.85527        42.36284         0.73769
C         35.13945        44.63812         0.90314
C         33.85371        43.87802         0.98065
C         35.37391        46.09427         0.85388
C         37.69285        27.15353         0.01571
C         36.30561        26.62337        -0.34697
C         37.55882        28.66064        -0.41800
C         36.42494        29.37203         0.28597
C         37.61163        31.65633         0.05422
C         36.40605        30.82900         0.44787
C         37.61317        33.13625         0.30444
C         36.39369        33.87380         0.80808
C         37.61937        35.98951         1.40266
C         36.43951        35.36309         0.63612
C         37.75915        37.49198         1.10673
C         36.45727        38.21497         1.18185
C         37.72751        40.36718         0.55689
C         36.44050        39.71759         0.93573
C         37.69169        41.81926         0.21382
C         36.42024        42.57903         0.35765
C         37.61110        44.78479         0.04977
C         36.42543        43.92592         0.51751
C         37.85446        46.06729         0.97291
C         36.46960        46.64449         0.97836
C         40.22272        24.47108        -0.55556
C         39.13987        25.04711        -0.42748
C         40.20334        27.20692        -0.22159
C         38.88602        26.52334        -0.70547
C         40.22381        28.71020        -0.10935
C         38.91532        29.44053        -0.40633
C         40.24728        31.69258        -0.22152
C         38.91007        30.93658        -0.25593
C         40.21004        33.23484        -0.05345
C         38.92867        33.79138         0.62725
C         40.21307        35.96629         1.33646
C         38.91536        35.18746         1.20531
C         40.22050        37.48128         1.27680
C         38.93180        38.18488         1.04754
C         40.25614        40.26427         0.26282
C         39.01263        39.72831         1.10806
C         40.27383        41.80998         0.21653
C         38.98500        42.57270         0.24986
C         40.24691        44.72508        -0.32995
C         38.93044        44.00800        -0.19439
C         40.26279        46.21819        -0.11079
C         38.99070        46.90384         0.43962
C         40.42460        48.79929         0.81546
C         39.36636        48.18643         1.03626
C         42.89388        24.47537        -0.34371
C         41.57381        25.01280        -0.69392
C         42.71766        27.20469         0.27518
C         41.53109        26.52983        -0.44482
C         42.73101        28.73770         0.18255
C         41.55742        29.42277        -0.05134
C         42.92079        31.62756        -0.03988
C         41.55964        30.91428        -0.18317
C         42.81591        33.08049         0.49401
C         41.41872        33.72871         0.75441
C         42.34046        36.02969         0.17230
C         41.41436        35.26065         0.80270
C         42.71305        37.41139         0.52233
C         41.54286        38.22338         1.05923
C         42.80890        40.27136         0.13039
C         41.57421        39.76788         0.91997
C         42.77625        41.70044        -0.38685
C         41.44113        42.46963        -0.54835
C         42.72621        44.64537        -0.49825
C         41.54013        43.97326        -0.30679
C         42.76177        46.12424        -0.37401
C         41.59829        46.87587        -0.00902
C         42.96767        48.81266         0.28610
C         41.68260        48.25676         0.39799
C         43.92273        25.17001        -0.40518
C         45.31994        27.31722         0.17346
C         44.07494        26.60789        -0.18237
C         45.18951        28.61048         1.06214
C         43.99923        29.43880         0.53351
C         45.26583        31.57617         1.05734
C         44.05032        30.79642         0.55898
C         45.38738        32.88751         0.25641
C         44.15632        33.73879         0.33118
C         45.38253        35.84679        -0.28543
C         44.27615        35.06833        -0.26258
C         45.16228        37.27671        -0.77721
C         44.09074        38.02636         0.10464
C         45.34935        40.30542        -0.22581
C         44.13232        39.52416         0.19519
C         45.32319        41.78422        -0.48307
C         44.02282        42.50792        -0.53957
C         45.21776        44.59989        -1.10107
C         43.98420        43.87640        -0.66907
C         45.17804        46.12585        -1.08940
C         44.00818        46.79562        -0.52185
C         43.94995        48.13111        -0.12126
C         47.67057        27.20131         0.86460
C         46.63556        26.72446         0.40283
C         47.89528        28.58498         1.31014
C         46.56295        29.35899         1.26020
C         47.92064        31.55732         0.67119
C         46.61909        30.86065         1.06730
C         47.98376        32.96265         0.13128
C         46.66804        33.62660        -0.03763
C         47.91847        35.79531        -0.78172
C         46.65924        35.09314        -0.41868
C         47.93440        37.32643        -1.01861
C         46.51601        38.05103        -0.93805
C         47.85237        40.29557        -0.68521
C         46.53965        39.54518        -0.74654
C         47.79144        41.78793        -0.68047
C         46.60719        42.45105        -0.85526
C         47.73818        44.65290        -0.30436
C         46.60705        43.92702        -1.19585
C         47.62726        46.10152        -0.77482
C         46.52922        46.64503        -0.93212
C         50.46471        28.62747         0.61699
C         49.19351        29.27627         1.03932
C         50.26389        31.17869        -0.35379
C         49.18201        30.72631         0.61082
C         50.21011        32.62517        -0.81663
C         49.13455        33.54497        -0.34216
C         50.36778        35.74864         0.06856
C         49.28280        35.03293        -0.78971
C         50.36704        37.32171        -0.13188
C         48.94588        38.00285        -0.05219
C         50.41466        40.27083        -0.04929
C         49.10612        39.52412        -0.38288
C         50.20759        41.75844         0.30167
C         49.02717        42.51319        -0.24166
C         50.16441        44.56127         0.43890
C         49.10910        44.02696        -0.55182
C         51.51255        29.20886         0.29863
C         52.90037        31.42614        -0.40215
C         51.87822        30.65127         0.34352
C         52.88470        32.69243        -0.33731
C         52.52406        33.89719         0.25330
C         52.81121        36.29892         0.30452
C         52.14304        35.17753        -0.38637
C         52.52252        37.22165         1.08355
C         51.31501        38.03151         0.87916
C         52.43497        40.40043         1.30994
C         51.31911        39.51720         0.95003
C         52.48295        41.62432         1.04046
C         51.50073        42.53789         0.62224
C         51.24546        43.90366         0.56509
O         33.03514        37.81185        -1.49294
O         31.77540        39.00517         0.33055
O         42.67308        40.53238        -1.29821
O         39.45506        44.30402        -1.51161
O         33.32806        41.61596         1.88442
O         36.34589        39.18783         2.27492
O         49.14697        42.15472         1.20363
O         46.34427        38.96237        -2.06424
O         45.61504        41.21940         0.87775
O         38.94664        34.00732         2.06331
O         40.96624        31.35893        -1.44581
O         35.75011        33.44314         2.03890
O         43.10507        35.49175        -0.85834
O         42.51764        37.66051         1.94901
O         47.21201        28.93972         2.51678
O         50.69789        38.72128         1.99556
O         30.58842        34.63413         0.49765
O         37.68593        40.78113        -0.85874
O         50.86953        32.90837        -1.81221
O         39.15840        40.07655         2.43775
O         34.59387        44.19058         2.17993
O         35.79797        31.08567         1.79928
O         41.67460        25.97314        -1.77626
O         48.75464        39.83657        -1.75548
O         47.44265        31.54485         2.05696
O         38.88873        30.28530        -1.58169
O         32.74161        33.42882         1.45490
O         40.09155        27.84301         1.06758
O         40.25372        36.73755         2.56244
O         39.82754        42.43274         1.44301
O         43.58436        33.55862         1.65591
O         45.95181        32.79257        -1.06109
O         47.09406        35.21354        -1.85215
O         44.93141        45.39910        -2.31566
O         44.57828        38.69150         1.29884
O         44.80801        27.39223        -1.16226
O         39.26959        46.88522        -0.96792
O         37.38413        32.63198        -1.04593
O         49.55974        30.32665         1.97294
O         34.75817        35.80146         2.44670
H         35.60431        35.74326         2.95951
O         33.55089        32.08707        -1.77261
H         33.86132        31.24164        -2.18176
O         44.98296        31.80785         2.44784
H         45.82231        32.04443         2.90283
O         47.39207        44.55121         1.04361
H         48.20978        44.58064         1.58972
O         40.27176        33.81787        -1.36208
H         39.61967        33.36059        -1.93614
O         50.91595        37.57673        -1.43103
H         50.18533        37.48825        -2.09771
O         50.10000        30.42228        -1.53789
H         50.59662        30.88398        -2.25267
O         32.23889        36.31064         1.75283
H         32.16727        35.40859         2.14278
O         50.16376        35.40430         1.40248
H         50.77156        35.92003         1.97702
O         37.12733        28.59256        -1.82075
H         37.56364        29.35165        -2.28609
O         40.17840        39.72308        -1.05544
H         39.34904        40.06327        -1.47102
O         34.57849        29.64198        -1.64425
H         35.37116        29.05023        -1.78089
O         48.41614        37.46823        -2.35751
H         47.80719        36.97667        -2.94962
O         34.28596        35.46133        -1.16490
H         35.25786        35.31276        -1.23983
O         51.99689        31.05567         1.66788
H         51.32936        30.56685         2.21468
O         41.17337        33.21306         2.07738
H         41.83435        33.60477         2.68904
O         44.79768        28.14256         2.36410
H         45.60082        28.14321         2.94205
O         37.36843        35.96064         2.83914
H         38.19506        36.25946         3.28344
O         37.14296        45.25506        -1.21589
H         37.93385        45.39144        -1.79560
O         38.21566        45.67954         2.28311
H         37.44403        45.28568         2.74201
O         38.79927        26.69354        -2.09699
H         37.89348        26.45923        -2.39206
O         33.04520        30.70702         1.55172
H         33.66082        30.31388         2.21211
O         42.52429        26.83477         1.64919
H         43.18571        27.31152         2.20878
O         49.71073        35.09585        -2.14631
H         49.01347        34.68237        -2.69992
O         41.09073        42.36386        -1.94756
H         41.35608        41.46044        -2.24289
O         47.04547        44.01938        -2.55586
H         46.44583        44.65356        -3.01989
O         49.54607        44.20052        -1.87114
H         49.25491        45.08319        -2.18683
O         44.56093        37.22610        -2.07738
H         45.14900        36.72029        -2.67595
O         48.36088        37.83057         1.23636
H         48.95569        38.23039         1.91893
O         34.91564        41.94905        -1.34132
H         35.75070        41.69207        -1.79341
O         52.30874        35.16228        -1.74704
H         52.07135        36.04951        -2.10026
O         51.20888        40.30125        -1.25174
H         50.59313        40.29902        -2.02134
O         32.11716        39.00731        -3.29115
H         32.10126        38.27974        -3.94473
O         34.66457        28.61228         1.83165
H         35.37032        28.16113         2.34039
O         52.59449        33.91641         1.60347
H         52.77231        33.00439         1.93395
O         37.80711        27.05066         1.41165
H         38.15319        26.16329         1.64407
O         30.36535        42.08171         1.96655
H         30.78002        42.60905         2.67876
O         41.70027        40.36324         2.20169
H         40.80258        40.28535         2.65335
O         43.40964        31.81408        -1.39942
H         42.62508        31.88032        -1.99550
