         598
 CSIRO Nanostructure Databank - Neutral Graphene Oxide Data Set
C         23.20265        69.15514         2.80755
C         23.19552        70.55718         3.06912
C         21.96116        71.22225         3.29475
C         23.07690        73.35871         3.11493
C         21.91521        72.60709         3.33839
C         25.48280        65.14377         1.00832
C         25.50336        66.50112         1.45269
C         24.35227        67.12482         1.94604
C         25.59636        69.22082         2.36350
C         24.35561        68.48828         2.37571
C         25.62555        70.56947         2.80339
C         24.41084        71.31695         3.01692
C         25.44042        73.63385         2.56025
C         24.34060        72.75616         2.96634
C         27.82113        61.18655        -0.80518
C         27.75401        62.56291        -0.59848
C         26.62566        63.18036         0.01223
C         27.76619        65.39847         0.11000
C         26.58374        64.53971         0.37766
C         27.89539        66.63252         0.91141
C         26.76957        67.23378         1.44307
C         27.97250        69.39071         1.80111
C         26.80352        68.60265         1.93804
C         28.03472        70.73568         2.25438
C         26.89581        71.18916         2.91400
C         27.98631        73.90966         2.27563
C         26.76561        73.36101         2.79923
C         30.35131        57.01617        -1.57517
C         30.29928        58.43789        -1.48427
C         29.07827        59.11471        -1.29603
C         30.23798        61.25434        -1.41657
C         29.02980        60.51928        -1.19787
C         30.19452        62.72685        -1.46002
C         28.90079        63.39370        -1.04729
C         30.30078        65.42401        -0.42385
C         28.96358        64.81508        -0.57943
C         30.42728        66.66055         0.36444
C         29.21397        67.26917         1.03052
C         30.38074        69.58134         1.04925
C         29.22680        68.71922         1.43397
C         30.48313        70.89251         1.74819
C         29.17016        71.66882         1.78380
C         30.33696        73.99415         1.87317
C         29.18411        73.18507         2.16480
C         32.73741        52.80498        -1.76134
C         32.77465        54.18560        -1.42857
C         31.63709        54.93228        -1.73605
C         32.80914        57.07782        -1.37989
C         31.56709        56.34142        -1.53522
C         32.78754        58.49247        -1.57443
C         31.52068        59.17865        -1.59917
C         32.66879        61.37619        -1.94769
C         31.45482        60.59474        -1.62897
C         32.68233        62.83368        -1.69408
C         31.47136        63.48937        -1.41612
C         32.64413        65.69487        -1.25153
C         31.44225        64.85992        -0.97738
C         32.78315        67.04977        -0.67422
C         31.67153        67.48358         0.20719
C         32.89379        69.61715         0.63990
C         31.59681        68.94449         0.48682
C         32.95615        70.76042         1.46325
C         31.73598        71.34174         2.02984
C         32.82972        74.30945         1.60643
C         31.68293        73.63851         2.06895
C         35.22442        48.52305        -1.14169
C         35.19598        49.92852        -1.18463
C         33.97411        50.57576        -1.65667
C         35.35756        52.91205        -0.41610
C         33.59565        51.82595        -1.20469
C         35.24569        54.25585        -0.67009
C         33.89014        54.93517        -0.65680
C         35.23691        57.11640        -1.10531
C         34.00873        56.39514        -1.10332
C         35.23618        58.53080        -1.36224
C         34.01136        59.20289        -1.60051
C         35.24424        61.41651        -1.73452
C         34.00952        60.63965        -1.93190
C         35.19234        62.85703        -1.75505
C         33.93910        63.51693        -1.71804
C         35.18942        65.76725        -1.73026
C         33.90701        64.98944        -1.73551
C         35.15425        67.24112        -1.38714
C         33.93764        67.80620        -0.74028
C         35.23630        69.83165         0.07418
C         34.03828        69.08380         0.00037
C         35.31291        71.07019         0.79039
C         34.17825        71.45220         1.54924
C         35.29231        74.14565         1.05518
C         34.13206        73.72203         1.67134
C         37.58184        44.47550         0.52681
C         37.58112        45.71287        -0.09945
C         36.40644        46.41224        -0.51432
C         37.63312        48.54167        -0.86707
C         36.41314        47.79554        -0.85037
C         37.65365        49.95694        -0.96095
C         36.40751        50.67463        -0.95033
C         37.70992        52.78908        -0.96661
C         36.51251        52.11336        -0.75684
C         37.80408        54.20556        -0.63711
C         36.48921        55.02437        -0.57920
C         37.71474        57.15189        -1.04151
C         36.51035        56.46382        -0.90347
C         37.72494        58.57852        -1.26455
C         36.46966        59.28028        -1.36346
C         37.67969        61.47670        -1.36326
C         36.43316        60.70090        -1.50680
C         37.70499        62.86951        -1.97289
C         36.42689        63.63067        -1.70979
C         37.70844        65.74967        -1.43631
C         36.46354        65.01508        -1.61508
C         37.73335        67.15347        -1.23300
C         36.46823        67.94480        -1.20264
C         37.74994        69.87231        -0.12414
C         36.45193        69.31197        -0.58048
C         37.77934        71.24925         0.47528
C         36.49507        71.91590         0.76627
C         37.73628        74.02027         1.00241
C         36.50198        73.32758         0.97558
C         40.26443        40.49905         2.10470
C         40.15965        41.87807         1.76449
C         38.94219        42.43517         1.33406
C         40.08391        44.60627         0.94241
C         38.77874        43.92828         1.27233
C         40.09501        45.83152         0.26529
C         38.88478        46.34890        -0.40783
C         40.13450        48.60934        -0.71940
C         38.90110        47.83477        -0.80916
C         40.14595        49.98063        -1.00757
C         38.89932        50.65138        -1.13320
C         40.19933        52.80277        -1.51750
C         38.86851        52.08111        -1.61009
C         40.24676        54.22876        -1.45492
C         39.08149        54.94357        -0.88457
C         40.23478        57.12907        -1.48577
C         39.02814        56.45404        -0.97677
C         40.20466        58.54070        -1.58471
C         38.96379        59.25371        -1.39995
C         40.19670        61.47203        -1.71507
C         38.98550        60.72082        -1.34543
C         40.17900        62.86888        -1.68289
C         38.97167        63.61925        -1.62812
C         40.18233        65.78304        -1.39328
C         38.95910        65.03362        -1.45188
C         40.21076        67.18788        -1.19243
C         38.95993        67.84675        -1.06500
C         40.23256        70.04888        -0.61949
C         38.94781        69.31148        -0.82791
C         40.20212        71.40340        -0.00973
C         39.03800        72.02361         0.36378
C         40.19645        74.13504         0.93146
C         39.00640        73.42189         0.77033
C         42.86227        36.51227         3.31853
C         42.74531        37.91348         3.27341
C         41.55256        38.55183         2.90266
C         42.63020        40.77277         2.69466
C         41.46911        39.94969         2.60056
C         42.61039        42.14561         2.28250
C         41.34853        42.69365         1.86956
C         42.45940        44.87929         1.55623
C         41.30643        44.05132         1.43466
C         42.24883        46.20875         1.20446
C         41.25088        46.63356         0.31453
C         42.66545        48.56734        -0.82639
C         41.38044        47.86120        -0.52083
C         42.65497        50.00132        -1.22282
C         41.40860        50.67873        -1.25518
C         42.65106        52.72341        -1.98583
C         41.39232        52.06355        -1.58455
C         42.64974        54.24878        -2.11177
C         41.42130        54.95433        -1.70147
C         42.67371        57.09094        -1.87112
C         41.44058        56.39637        -1.66780
C         42.64598        58.50997        -1.89561
C         41.43474        59.22386        -1.79251
C         42.71504        61.43040        -2.11697
C         41.41440        60.69280        -2.01311
C         42.70990        62.93435        -2.04761
C         41.48585        63.60498        -1.45112
C         42.77369        65.84864        -1.55799
C         41.41935        65.08765        -1.73040
C         42.71988        67.20914        -1.01096
C         41.47848        67.89920        -0.96045
C         42.65257        69.93068        -0.12541
C         41.48711        69.28235        -0.59482
C         42.71422        71.33337         0.11320
C         41.48617        72.12521        -0.03373
C         42.75818        74.13007         0.94542
C         41.47918        73.60293         0.49297
C         45.46158        33.84394         3.70246
C         44.21920        34.47492         3.57627
C         45.31654        36.67424         3.64027
C         44.11597        35.88483         3.53503
C         45.27199        38.09347         3.65996
C         43.93524        38.71960         3.62694
C         45.11560        40.90756         3.07587
C         43.85041        40.23016         3.29410
C         45.08727        42.21779         2.41055
C         43.79917        42.91967         2.28231
C         45.10946        45.03829         1.59790
C         43.78159        44.43584         2.19413
C         45.21680        46.29548         0.94379
C         44.11137        47.20763         0.72402
C         45.14532        48.40364        -1.11945
C         43.95941        48.01493        -0.35628
C         45.12270        49.84140        -1.61277
C         43.88350        50.64770        -1.49977
C         45.15773        52.75132        -2.01943
C         43.95343        52.04440        -1.81509
C         45.17402        54.20022        -2.15878
C         43.95046        54.94261        -2.06951
C         45.18260        57.03242        -2.11692
C         43.94027        56.35506        -1.99898
C         45.16744        58.50562        -2.23320
C         43.95731        59.22010        -1.65675
C         45.14149        61.38652        -1.71341
C         43.98073        60.70853        -1.90863
C         45.16526        62.83539        -1.41153
C         44.01580        63.67811        -1.86736
C         45.22220        65.73517        -1.03724
C         43.97180        65.05828        -1.38032
C         45.16511        67.10584        -0.50880
C         43.92185        67.77145        -0.48062
C         45.17158        69.83592         0.40647
C         43.84703        69.11153         0.11704
C         45.16342        71.30396         0.43079
C         43.93996        72.00663         0.40423
C         45.19937        74.07569         0.96990
C         43.94847        73.43142         0.73992
C         46.63202        34.59081         3.76235
C         47.75307        36.79291         3.70304
C         46.58000        36.01220         3.72025
C         47.74064        38.20206         3.66810
C         46.45213        38.88497         3.70428
C         47.46934        41.18911         3.51319
C         46.32433        40.31659         3.46107
C         47.62495        42.39181         2.80474
C         46.38232        42.94280         2.19201
C         47.59038        45.01655         1.61984
C         46.34286        44.37794         1.82641
C         47.64098        46.21271         0.88009
C         46.43796        46.76291         0.41581
C         47.69626        48.43119        -1.10258
C         46.43255        47.76592        -0.68919
C         47.64471        49.69308        -1.98540
C         46.43448        50.56077        -1.64409
C         47.73647        52.65628        -2.38660
C         46.46655        52.03717        -1.89533
C         47.75749        54.16800        -2.09963
C         46.41637        54.90288        -2.23598
C         47.66457        57.09058        -2.12303
C         46.41200        56.32703        -2.20836
C         47.70261        58.50033        -2.01966
C         46.46411        59.26960        -2.24724
C         47.69869        61.44536        -1.53167
C         46.45003        60.73753        -1.92830
C         47.63406        62.61406        -0.54183
C         46.38281        63.45889        -0.81194
C         47.70045        65.59471        -0.31611
C         46.50746        64.94751        -0.90114
C         47.65365        66.99936        -0.12172
C         46.40425        67.73495        -0.14011
C         47.64984        69.83112         0.28410
C         46.42518        69.11517         0.16719
C         47.61516        71.25018         0.54805
C         46.41516        71.97325         0.58091
C         47.65756        74.09461         1.00491
C         46.42645        73.40730         0.85205
C         49.02124        38.80760         3.41345
C         50.29812        40.96418         2.96599
C         49.31446        40.16702         3.57054
C         50.16299        42.37501         2.76401
C         48.88411        43.04012         2.65250
C         50.16957        45.13877         1.81609
C         48.85715        44.44619         2.17242
C         50.17894        46.34441         0.96474
C         48.89000        46.98484         0.68182
C         50.16630        48.68131        -0.76015
C         48.89389        48.16880        -0.25021
C         50.12213        49.82478        -1.59799
C         48.92922        50.47494        -1.94492
C         50.17384        52.27987        -2.96679
C         48.89950        51.84194        -2.43736
C         50.12852        54.56144        -3.08772
C         48.93208        55.01767        -2.57248
C         50.12391        57.10113        -1.96462
C         48.90901        56.40170        -2.17532
C         50.11524        58.46985        -1.58286
C         48.90828        59.18319        -1.69835
C         50.18583        61.30125        -0.94727
C         48.96854        60.65577        -1.55891
C         50.11105        62.68370        -0.37134
C         48.93990        63.40637        -0.42166
C         50.10921        65.56371         0.09000
C         48.90128        64.85019        -0.17210
C         50.11448        66.97326         0.15251
C         48.88022        67.70819         0.08525
C         50.15167        69.89832         0.00205
C         48.87343        69.12358         0.18266
C         50.16560        71.21458         0.74314
C         48.86306        71.93920         0.92336
C         50.13075        74.07273         1.06914
C         48.89579        73.41617         1.00328
C         51.36515        43.05552         2.37947
C         52.62015        44.98107         1.46048
C         51.42339        44.36096         1.88622
C         52.63689        46.25978         0.84538
C         51.36536        46.89709         0.51742
C         52.60999        48.76993        -0.51123
C         51.38467        48.12329        -0.26885
C         52.55434        50.17250        -1.05829
C         51.45913        50.28902        -2.11040
C         52.65123        52.28714        -2.97066
C         51.40171        51.66204        -2.71733
C         52.64188        54.55896        -3.04796
C         51.39215        55.20499        -2.83684
C         52.58601        56.99041        -1.63069
C         51.37828        56.43323        -2.13065
C         52.54515        58.29735        -0.97828
C         51.32006        59.08437        -1.05643
C         52.39811        60.95627         0.16530
C         51.30190        60.40483        -0.62184
C         52.52040        62.39410         0.43610
C         51.41618        63.32073        -0.00235
C         52.55099        65.61016         0.71551
C         51.39615        64.82424         0.20093
C         52.58591        67.00447         0.49015
C         51.36446        67.71380         0.28468
C         52.62747        69.81672         0.44213
C         51.39984        69.11210         0.29062
C         52.63724        71.28633         0.56184
C         51.41633        71.98800         0.69432
C         52.61982        74.08267         1.04057
C         51.38938        73.39111         0.94528
C         53.83778        46.91592         0.51347
C         55.06247        48.89010        -0.39696
C         53.84960        48.19438        -0.11380
C         55.09357        50.11597        -1.09860
C         53.87508        50.71582        -1.55349
C         55.12240        52.66444        -2.49402
C         53.86700        51.87423        -2.35162
C         55.09612        54.21233        -2.50007
C         53.82249        55.00010        -2.43928
C         55.00306        56.73685        -1.10661
C         53.77408        56.23584        -1.73978
C         54.95897        58.08877        -0.47911
C         53.69531        58.84125        -0.43056
C         54.94733        60.78670         0.66099
C         53.66736        60.11432         0.31615
C         55.00114        62.14468         0.99426
C         53.69236        62.77372         1.06987
C         55.02169        65.56709         0.97389
C         53.73353        65.03427         1.17159
C         55.07031        66.94837         0.67910
C         53.83553        67.68654         0.57616
C         55.12604        69.84157         0.31992
C         53.83227        69.10107         0.51860
C         55.11132        71.20785         1.00369
C         53.84431        71.98192         0.74496
C         55.09498        74.06569         1.22784
C         53.85179        73.39131         0.98257
C         56.32914        50.77849        -1.39797
C         57.59613        52.77086        -2.05460
C         56.37491        52.03786        -1.99028
C         57.62183        54.17594        -2.07532
C         56.33885        54.87811        -2.02498
C         57.52767        56.94711        -1.38313
C         56.29712        56.12496        -1.47141
C         57.48142        58.32461        -0.77688
C         56.21436        58.80407        -0.17026
C         57.85091        61.17482         0.64877
C         56.08723        59.90529         0.63363
C         57.58359        62.49578         0.60761
C         56.25903        63.07899         1.11068
C         57.49335        65.38406         0.64150
C         56.22513        64.66043         1.08405
C         57.56657        66.89106         0.61613
C         56.32016        67.67802         0.70647
C         57.58646        69.77123         0.99375
C         56.36170        69.05503         0.68550
C         57.57317        71.14501         1.17530
C         56.40064        71.98833         0.70293
C         57.54052        74.09705         1.44888
C         56.34369        73.41407         1.23351
C         58.82693        54.90570        -1.86779
C         60.02200        57.01865        -1.32670
C         58.84354        56.28210        -1.55387
C         60.05791        58.40000        -0.95347
C         58.77251        59.12520        -0.72414
C         60.17567        61.19695        -0.11959
C         58.88016        60.51577        -0.18486
C         60.10360        62.59460         0.03147
C         58.73395        63.30358        -0.02750
C         60.07790        65.40820         0.67377
C         58.80259        64.64783         0.67036
C         60.07855        66.89094         0.81315
C         58.84920        67.59882         0.82185
C         60.02600        69.65312         1.43098
C         58.83297        69.00420         1.11975
C         60.01313        71.05294         1.89660
C         58.72511        71.81556         1.78795
C         60.09417        73.98245         1.67535
C         58.77459        73.37633         1.78839
C         61.26433        59.08083        -0.77233
C         62.56671        61.21267        -0.36371
C         61.36385        60.48143        -0.41330
C         62.55193        62.61392        -0.11988
C         61.30445        63.31272         0.01461
C         62.57075        65.45790         0.43003
C         61.28542        64.81843        -0.02927
C         62.56599        66.81673         0.81859
C         61.31231        67.53859         0.93774
C         62.55474        69.58295         1.77676
C         61.34387        69.03662         1.03793
C         62.61045        71.07956         1.92513
C         61.30862        71.82204         2.04056
C         62.52473        73.93136         1.44678
C         61.30235        73.28336         1.76158
C         63.76619        63.35047        -0.02855
C         65.01570        65.41301         0.54662
C         63.78823        64.73446         0.30327
C         65.02737        66.75735         0.91711
C         63.81360        67.46320         1.06197
C         65.08260        69.64192         1.30909
C         63.84975        68.85227         1.59000
C         65.01220        71.00328         1.07232
C         63.85190        71.80591         1.51175
C         64.91940        73.95852         0.90039
C         63.77001        73.26977         1.24800
C         66.32863        67.43398         1.29957
C         67.45801        69.59959         0.69678
C         66.30696        68.92287         1.03513
C         67.45934        71.01711         0.47155
C         66.16059        71.70248         0.48645
C         67.44760        73.90214         0.49709
C         66.14105        73.26136         0.45787
C         68.61068        71.75673         0.23868
C         68.59638        73.17940         0.28942
O         46.62591        51.43651        -0.49726
O         42.07757        47.64228        -1.82538
O         54.88538        56.84941         0.37336
O         39.39519        55.76813         0.28000
O         63.14479        68.89088         2.89918
O         45.86179        42.12685         1.07137
O         59.61133        64.68803         1.87162
O         29.23383        63.24236        -2.45880
O         27.00221        72.31697         3.72151
O         48.72072        48.37328         1.19041
O         44.05386        59.11834        -0.23917
O         36.46006        69.16550        -2.03334
O         49.51712        45.36513         3.11856
O         39.03877        46.70787        -1.79162
O         46.18411        65.52691        -2.19952
O         47.23744        47.24647        -1.82109
O         57.14548        60.29349         1.45618
O         29.54578        67.67043         2.40838
O         43.68971        39.70294         4.65973
O         28.01850        65.67813        -1.32754
O         42.50548        53.38930        -3.28999
O         37.93004        69.99501         1.30632
O         60.61184        71.32262         3.21731
O         34.21209        52.22859         0.00065
O         39.51188        70.08285        -1.92483
O         55.29414        53.43274        -3.71361
O         37.21807        54.61681         0.62896
O         52.66733        60.14998         1.37804
O         65.87158        72.44504        -0.74004
O         35.11979        66.78821        -2.77771
O         63.54850        71.51943         2.93989
O         34.27367        72.52721         2.42665
O         33.31237        60.96579        -3.18932
O         45.00963        48.69546        -2.53091
O         43.39680        63.49082        -3.18582
O         58.45725        72.55462         2.98947
O         48.43771        40.86372         4.44670
O         41.52903        73.23966        -0.94583
O         47.19472        61.62324        -2.87665
O         49.53353        71.23311         2.05205
O         50.17240        53.36656        -3.82205
O         31.54192        66.57804         1.34795
O         57.42041        66.07004        -0.64109
O         57.27003        58.12048        -2.24233
O         38.35705        61.29307        -0.10173
O         45.28396        63.06335         0.07365
O         32.96047        65.56715        -2.67604
O         51.83737        64.22642        -1.10086
O         58.54582        60.30997        -1.61223
O         30.62755        69.64357        -0.41190
O         53.64780        63.87227         1.91061
O         52.65637        53.38575        -3.82330
O         44.36372        69.21949         1.47631
O         45.73439        58.97343        -3.49035
O         42.10134        65.63245        -2.86204
O         56.38028        63.89281         2.31013
O         43.11611        47.18584         1.70177
O         42.01768        61.00536        -3.34124
O         49.95685        61.30779        -2.41615
O         31.89932        72.47217         2.82679
O         66.55259        67.21682         2.70762
H         65.81294        67.63149         3.20004
O         43.77495        44.93601         3.57147
H         43.64229        45.90874         3.52282
O         61.12641        65.19998        -1.43708
H         61.84740        64.77470        -1.94727
O         58.44500        63.53742        -1.41723
H         58.46730        62.67493        -1.88579
O         37.71293        62.61738        -3.41636
H         37.69125        63.48122        -3.88036
O         51.82452        49.37792        -3.18440
H         51.09204        49.35770        -3.83584
O         47.48843        61.99449         0.75987
H         46.52845        62.03230         0.99596
O         56.60352        72.20340        -0.71641
H         56.23345        71.42932        -1.20923
O         47.99393        54.16574        -0.63850
H         47.39888        53.49772        -0.22893
O         33.44499        54.98298         0.72796
H         33.48342        54.06139         1.06768
O         52.17384        51.06067         0.03849
H         52.70636        50.82345         0.82659
O         50.20575        70.27566        -1.41645
H         50.22889        69.45190        -1.94824
O         61.58450        69.55258        -0.34197
H         60.96128        69.09048        -0.94406
O         55.11543        70.91994         2.42636
H         55.12922        71.76997         2.91505
O         38.49898        44.32588         2.68820
H         39.21905        43.94772         3.23894
O         47.52143        49.28072        -3.36313
H         46.90205        48.50978        -3.37841
O         28.84063        71.84625         0.35672
H         29.37655        71.22635        -0.18840
O         55.18913        70.04163        -1.13569
H         55.24094        69.15761        -1.55828
O         38.57033        52.03867        -3.05914
H         39.31929        51.58425        -3.50192
O         41.68273        63.54815         0.00251
H         41.34996        62.69047         0.34451
H         23.00350        74.45451         3.06094
H         25.16855        74.52798         1.97901
H         28.02032        74.99118         2.06028
H         30.13877        75.03825         1.57784
H         32.70720        75.23757         1.03077
H         35.33719        75.15272         0.61459
H         37.71237        75.10106         1.20657
H         40.17527        75.11693         1.42758
H         42.78761        75.12339         1.41825
H         45.19697        75.14667         1.22243
H         47.64345        75.18838         1.12608
H         50.14282        75.16772         1.18037
H         52.61829        75.16719         1.22453
H         55.05875        75.13519         1.48786
H         57.53492        75.19503         1.54107
H         60.12901        75.02493         1.32203
H         62.49266        75.01699         1.26562
H         64.89754        75.05816         0.84552
H         67.50272        74.97135         0.74863
H         22.24762        68.60952         2.85217
H         21.03919        70.63000         3.38308
H         20.95659        73.12215         3.49060
H         24.56231        64.55738         1.15261
H         23.40513        66.56448         1.97043
H         26.94928        60.56471        -0.55157
H         25.75785        62.54595         0.25022
H         29.41288        56.44703        -1.64611
H         28.15328        58.53174        -1.17809
H         31.98145        52.48598        -2.49700
H         30.74229        54.41570        -2.11678
H         34.28603        47.96942        -1.28859
H         33.40708        50.07819        -2.45778
H         36.61820        43.97196         0.70489
H         35.43350        45.90823        -0.41377
H         39.37885        39.85335         2.00900
H         38.04911        41.79445         1.27921
H         41.97371        35.88971         3.13763
H         40.66329        37.93101         2.71672
H         45.51100        32.74667         3.73675
H         43.30362        33.87072         3.50238
H         47.60823        34.09142         3.83951
H         48.72535        36.27735         3.68875
H         49.80439        38.15042         3.00583
H         51.18868        40.47598         2.54327
H         52.30203        42.48028         2.43113
H         53.57338        44.45204         1.61210
H         54.79605        46.44111         0.77317
H         56.01630        48.43256        -0.09591
H         57.26630        50.32075        -1.04692
H         58.53609        52.22978        -1.86537
H         59.78176        54.36002        -1.91270
H         60.98650        56.50380        -1.45822
H         62.20254        58.53658        -0.96107
H         63.52880        60.71099        -0.54341
H         64.72166        62.81655        -0.13909
H         65.96279        64.85949         0.46500
H         67.18432        66.95784         0.75964
H         68.40380        69.04763         0.58680
H         69.57723        71.23955         0.15407
H         69.56175        73.70541         0.26868
