         234
 CSIRO Nanostructure Databank - Neutral Graphene Oxide Data Set
C          1.22702         2.01159        -0.55194
C          1.18232         3.39768        -0.44610
C          2.43974         1.32323        -0.45679
C          2.36580         4.15548        -0.23828
C          1.11060         6.31263         0.00599
C          1.06479         7.64206         0.30361
C          2.34519         5.58191        -0.07186
C          2.29170         8.40887         0.51897
C          1.07619        10.74819         0.06149
C          1.17149        12.09468        -0.08626
C          2.27635         9.95060         0.39564
C          2.42203        12.82442         0.08430
C          1.23923        15.06066        -0.00885
C          1.27554        16.44013        -0.01307
C          2.44094        14.29030         0.18488
C          2.46686        17.16240         0.23037
C          2.53037        18.54297        -0.01915
C          3.64537         2.02447        -0.25395
C          3.61361         3.45801        -0.14265
C          4.89039         1.32421        -0.21659
C          4.82788         4.18083         0.03172
C          3.57699         6.30088         0.08754
C          3.56366         7.68309         0.35582
C          4.83259         5.57704         0.07618
C          4.83645         8.39415         0.54755
C          3.56943        10.58929        -0.07754
C          3.60322        12.09385         0.16257
C          4.81666         9.90019         0.44467
C          4.86923        12.74928         0.33682
C          3.62859        14.96141         0.46945
C          3.67088        16.45210         0.78611
C          4.85070        14.18175         0.68260
C          5.00956        17.16547         0.51461
C          3.73363        19.22760        -0.03062
C          5.00896        18.60714         0.18840
C          6.10914         1.97782        -0.03971
C          6.10340         3.43741         0.36176
C          7.33684         1.28341        -0.05187
C          7.33066         4.18726        -0.08626
C          6.09650         6.29993         0.15866
C          6.10384         7.66132         0.34211
C          7.34983         5.55893        -0.04803
C          7.40074         8.40428         0.57207
C          6.07413        10.61061         0.06181
C          6.08846        12.08506         0.23315
C          7.34139         9.84547         0.06515
C          7.34710        12.79390         0.18013
C          6.17015        14.92518         0.71309
C          6.15985        16.40847         0.63696
C          7.38746        14.20560         0.28566
C          7.48491        16.97328         0.67465
C          6.11187        19.42629        -0.12941
C          7.49001        19.12451         0.14036
C          8.57937         1.96314        -0.11505
C          8.53385         3.41269        -0.42866
C          9.81165         1.31973        -0.03977
C          9.84110         4.15810        -0.61441
C          8.60457         6.29553        -0.19286
C          8.62203         7.69142         0.02103
C          9.83134         5.62744        -0.44828
C          9.82351         8.39445        -0.14808
C          8.60015        10.63501         0.14869
C          8.56065        12.09781        -0.09253
C          9.85986         9.86934        -0.01176
C          9.75645        12.79344        -0.32775
C          8.59421        14.90738         0.02903
C          8.60232        16.34585         0.18404
C          9.79908        14.20447        -0.24468
C          9.82853        17.11549        -0.16592
C          8.65902        19.47062        -0.48191
C          9.89429        18.61682        -0.36663
C         11.06767         2.01777        -0.11296
C         11.09530         3.42997        -0.34292
C         12.28676         1.33709         0.07809
C         12.31159         4.14138        -0.31585
C         11.05421         6.32528        -0.50096
C         11.04977         7.72814        -0.38947
C         12.35621         5.59617        -0.77859
C         12.30032         8.49590        -0.34927
C         11.01064        10.57421        -0.64236
C         10.97576        12.06266        -0.76325
C         12.29454         9.86419        -0.50065
C         12.27504        12.81784        -0.90222
C         11.07907        14.90140        -0.33244
C         11.09242        16.34045         0.06731
C         12.25130        14.26772        -0.66191
C         12.37943        17.06911         0.09147
C         11.20411        19.26582        -0.12752
C         12.38273        18.56030         0.07195
C         13.52379         2.02728         0.04172
C         13.51622         3.44703        -0.14049
C         14.76858         1.34809         0.15287
C         14.80442         4.17503        -0.41381
C         13.57236         6.34466        -0.24038
C         13.55939         7.79995        -0.13839
C         14.73241         5.64503        -0.06044
C         14.71488         8.52434         0.12477
C         13.46308        10.68797        -0.15548
C         13.59651        12.08760        -0.64207
C         14.70987         9.99336         0.27129
C         14.88494        12.80633        -0.44070
C         13.52377        15.03066        -0.99642
C         13.61657        16.35472        -0.26357
C         14.85291        14.21037        -0.91255
C         14.82441        17.02910        -0.13417
C         13.62651        19.16585         0.37786
C         14.81845        18.38992         0.45556
C         16.01006         2.03760         0.22054
C         16.03191         3.46719         0.11121
C         17.22323         1.35040         0.47655
C         17.20591         4.15576         0.41649
C         16.00861         6.35736         0.10897
C         16.02014         7.85049         0.18281
C         17.16471         5.61290         0.66614
C         17.13060         8.57133         0.84084
C         15.99104        10.74824         0.31613
C         16.08433        12.14858        -0.04982
C         17.00944         9.94697         0.91774
C         17.39005        12.90682        -0.16063
C         16.14065        14.99446        -0.78279
C         16.05866        16.42478        -0.46504
C         17.39503        14.26008        -0.46609
C         17.27880        17.26998        -0.26318
C         15.95382        18.81674         1.11649
C         17.18013        17.94454         1.12496
C         18.43540         2.04413         0.64510
C         18.42581         3.47190         0.67878
C         19.69284         1.35803         0.78230
C         19.65865         4.20777         0.78981
C         18.41897         6.36894         0.99828
C         18.47320         7.89890         1.14143
C         19.68446         5.63441         0.78333
C         19.59277         8.46734         0.27094
C         18.78411        10.87509         0.24737
C         18.69770        12.21651        -0.25452
C         19.43840         9.76432        -0.30302
C         19.87137        12.82438        -0.75231
C         18.64934        15.04157        -0.69169
C         18.59807        16.55224        -0.50010
C         20.00463        14.33220        -0.55536
C         19.78341        17.36251        -0.11132
C         18.40388        18.73747         1.42922
C         19.63270        18.45298         0.82269
C         20.86999         2.05437         0.81544
C         20.88789         3.48974         0.76002
C         22.09393         4.21587         0.62678
C         20.87184         6.33173         0.47694
C         20.80478         7.76223         0.10352
C         22.07846         5.58652         0.42162
C         22.00206         8.45243        -0.25114
C         21.10927        10.62289        -1.04921
C         21.06497        12.08141        -1.06881
C         22.14957         9.80681        -0.58285
C         22.19420        12.73577        -1.57867
C         21.13474        14.90803        -1.39524
C         21.03206        17.20237        -0.71438
C         22.17032        14.11395        -1.85279
C         22.12451        18.04688        -0.45553
C         20.76451        19.28110         1.10996
C         21.97917        19.08478         0.47754
O         15.65364        14.50617        -2.11570
O         17.54243         5.86209         2.07312
O         16.40551         7.15405        -1.07459
O         10.70036        11.19488        -1.92845
O         19.99202         9.96978        -1.59187
O          4.84028         9.31759         1.76214
O          2.25564         9.33548         1.69351
O         13.09125        12.32811        -1.99805
O          9.07246         3.68555        -1.77059
O         18.10098        10.68522         1.44052
O         13.76230        10.54254         1.28480
O         12.58944         5.50864        -2.18473
O         18.60535        15.95504        -1.83636
O         11.73931        16.55410         1.36345
O          5.55560        14.44423         1.96776
O          6.64385        10.08136        -1.20371
O          7.63988        18.23688         1.22798
O         21.27031        16.22358        -1.69074
O          9.86810        17.66334        -1.53087
O          9.45359        10.34462         1.31568
O         13.33192        15.42577        -2.38317
H         14.19129        15.26153        -2.84625
O         20.44120        14.49800         0.83451
H         19.83419        13.98494         1.41038
O          7.56827         8.46877         2.01374
H          6.72235         8.80478         2.39263
O         17.24373        18.34948        -1.23200
H         17.38350        17.94678        -2.11632
O         17.03985        16.83833         2.07950
H         16.93510        17.22521         2.97411
O          6.17114         3.42238         1.83440
H          5.37493         2.95081         2.15938
O          3.58436        10.38066        -1.52045
H          4.47042        10.63084        -1.86362
O         18.84860         8.15435         2.51430
H         18.28676         7.57122         3.07172
O          3.55261        16.51027         2.25658
H          4.24674        15.90459         2.61258
O         14.89885         4.14765        -1.87628
H         14.08545         4.65277        -2.21133
H          0.29593         1.45118        -0.71533
H          0.21081         3.90158        -0.53174
H          2.46179         0.22819        -0.54898
H          0.16183         5.77670        -0.13142
H          0.09716         8.15005         0.41520
H          0.09096        10.26095         0.02879
H          0.25032        12.66023        -0.28141
H          0.28969        14.55566        -0.22503
H          0.36783        17.00348        -0.27762
H          1.60617        19.07641        -0.28836
H          4.88411         0.23940        -0.40428
H          3.72701        20.29826        -0.28269
H          7.32850         0.18238        -0.08258
H          5.88525        20.38600        -0.62139
H          9.83532         0.23516         0.14682
H          8.65503        20.20534        -1.30116
H         12.28057         0.24880         0.23595
H         11.23178        20.36588        -0.09349
H         14.76698         0.25091         0.24372
H         13.66717        20.23915         0.61800
H         17.21786         0.25100         0.52432
H         15.97811        19.80445         1.60157
H         19.69620         0.25851         0.80298
H         18.32728        19.61117         2.09407
H         21.82977         1.51889         0.85781
H         23.04984         3.67282         0.61070
H         23.03450         6.09140         0.23032
H         22.94635         7.92397        -0.05530
H         23.13944        10.26413        -0.43206
H         23.07211        12.14330        -1.87007
H         23.00570        14.58281        -2.38766
H         23.07494        17.88069        -0.97746
H         20.64279        20.10098         1.83136
H         22.83150        19.74154         0.69883
