         762
 CSIRO Nanostructure Databank - Neutral Graphene Oxide Data Set
C         22.27541        25.27421        -1.47564
C         21.28273        26.17479        -1.86385
C         22.86892        28.02091        -1.60655
C         21.57922        27.53249        -1.90400
C         23.06433        29.45861        -1.43900
C         22.03461        30.38359        -1.73161
C         23.24808        32.16559        -0.60649
C         22.11061        31.69416        -1.29706
C         23.29140        33.49731        -0.02942
C         22.14593        34.32156         0.01910
C         23.35731        36.01952         1.27297
C         22.17956        35.55504         0.64835
C         23.38729        37.31006         1.97333
C         22.19026        37.93031         2.39527
C         23.51209        39.58342         3.54769
C         22.26802        39.00176         3.27837
C         23.61761        41.77666         4.14408
C         22.45386        42.52052         4.38128
C         23.58226        44.45219         3.47390
C         22.42095        43.84334         3.99222
C         23.53383        45.88258         3.20083
C         22.35962        46.61835         3.26020
C         23.51699        48.76349         3.36734
C         22.35770        48.03707         3.36346
C         25.48365        23.30038        -2.32890
C         25.45616        24.59080        -1.71667
C         23.56184        25.74724        -1.21112
C         25.29303        27.62013        -1.08723
C         23.93565        27.11070        -1.33438
C         25.36111        28.99882        -0.57080
C         24.24197        29.92877        -0.82347
C         25.63704        31.83429        -0.04252
C         24.36190        31.29321        -0.46044
C         25.70418        33.17945         0.41051
C         24.49874        33.96952         0.55311
C         25.76769        35.69768         1.85656
C         24.51667        35.22445         1.21748
C         25.87807        37.11414         2.41122
C         24.61959        37.91562         2.27401
C         25.96811        39.92606         2.93560
C         24.70520        39.19808         2.89216
C         26.00043        41.37998         3.36992
C         24.76584        42.27169         3.50667
C         26.03482        44.41338         3.10717
C         24.78433        43.68969         3.30207
C         26.03957        45.79018         3.00101
C         24.78715        46.56585         2.88804
C         26.05788        48.86750         3.13110
C         24.77395        48.15023         2.97194
C         26.22705        50.19791         3.40793
C         27.94297        23.21171        -2.46668
C         26.64381        22.67014        -2.73005
C         28.11689        24.62079        -2.37804
C         26.33885        25.61825        -1.98154
C         27.83917        27.48059        -1.17246
C         26.48042        26.91572        -1.33230
C         27.94183        28.83212        -0.74849
C         26.74408        29.60510        -0.35737
C         28.08762        31.67181         0.01048
C         26.82424        31.07191        -0.17961
C         28.14204        33.00997         0.50453
C         26.96714        33.73472         0.72379
C         28.25757        35.82943         1.37307
C         27.03667        35.00963         1.47762
C         28.24455        37.20826         1.51744
C         27.09485        37.91598         1.99743
C         28.48898        39.92755         2.44434
C         27.13471        39.27961         2.41372
C         28.60090        41.38740         2.85715
C         27.30848        42.12443         3.20490
C         28.52290        44.32149         2.46199
C         27.31968        43.63915         3.08644
C         28.52408        45.84160         2.41291
C         27.30754        46.56164         2.95067
C         28.40507        48.86294         2.33985
C         27.29228        48.06483         2.94406
C         28.62749        50.23919         2.83546
C         27.51912        50.85140         3.38010
C         30.22840        20.21259        -1.88825
C         29.04711        20.97336        -2.16729
C         30.28600        23.02063        -1.65578
C         29.04765        22.35611        -2.13028
C         30.33730        24.49613        -1.40076
C         29.13088        25.31850        -1.68859
C         30.35353        27.33791        -1.01636
C         29.08009        26.70911        -1.33786
C         30.39095        28.72415        -0.72098
C         29.20244        29.49829        -0.62344
C         30.53502        31.55587        -0.20058
C         29.28843        30.89732        -0.25031
C         30.64881        32.92063         0.36561
C         29.43840        33.61689         0.88538
C         30.65327        35.85596         0.54329
C         29.57058        35.09437         1.29528
C         30.66909        37.23529         0.66696
C         29.40978        38.01336         0.98950
C         30.87665        39.91014         1.66176
C         29.64471        39.29739         1.74506
C         31.01170        41.38051         1.88416
C         29.82725        42.15229         2.39788
C         30.49259        43.95999         0.86578
C         29.60165        43.50777         1.82470
C         30.53080        46.11433         0.79166
C         29.52469        46.67405         1.69848
C         30.88044        48.71797         1.74416
C         29.50998        48.16274         1.65615
C         31.00809        50.12668         2.03737
C         29.92452        50.85347         2.54865
C         31.08029        52.98196         2.15091
C         30.07864        52.28435         2.74970
C         32.73700        18.62559        -1.19797
C         32.73823        20.02237        -1.72163
C         31.47182        20.79440        -1.82921
C         32.83467        23.03111        -1.88787
C         31.54360        22.27202        -1.97449
C         32.83381        24.47670        -1.53989
C         31.64026        25.19521        -1.38868
C         32.87628        27.23657        -0.99987
C         31.61593        26.60078        -1.12279
C         32.96387        28.62418        -0.53105
C         31.66344        29.38976        -0.37347
C         33.00889        31.52327        -0.32144
C         31.75354        30.85762        -0.36058
C         33.05794        32.97264        -0.22404
C         31.85358        33.71892         0.05417
C         32.97338        35.88594        -0.37852
C         31.79655        35.11415         0.05405
C         33.04182        37.34482        -0.12265
C         31.89402        38.00010         0.47734
C         33.39481        39.94479         1.21836
C         32.02813        39.25792         1.05332
C         33.27949        41.40925         0.74399
C         31.89874        41.98157         0.77851
C         32.93855        44.27936         0.26147
C         31.83822        43.48272         0.66930
C         32.88221        45.83103         0.03541
C         31.81609        46.53463         0.91083
C         33.68001        48.77440         0.92883
C         31.91751        47.79413         1.65005
C         33.17197        50.13776         0.66161
C         32.33133        50.85442         1.71997
C         32.76855        52.97305         0.36356
C         32.06632        52.30060         1.32771
C         32.61007        54.41073         0.13406
C         35.12142        18.72189        -0.49730
C         33.83427        18.00866        -0.72074
C         35.19683        20.13167        -0.97139
C         34.03796        20.78665        -1.66932
C         35.27878        22.95099        -1.59488
C         34.08325        22.27196        -1.69252
C         35.31875        24.39245        -1.57475
C         34.09946        25.13196        -1.47266
C         35.33121        27.25822        -1.20330
C         34.09596        26.54834        -1.23169
C         35.38244        28.64676        -0.98046
C         34.21152        29.38353        -0.69027
C         35.48294        31.50930        -0.60855
C         34.23198        30.79547        -0.50316
C         35.51498        32.93837        -0.48291
C         34.28165        33.64782        -0.28557
C         35.53954        35.85790        -0.03496
C         34.28432        35.12036        -0.38064
C         35.53232        37.37360        -0.07322
C         34.20191        38.04281        -0.40446
C         35.71563        40.09257         0.14140
C         34.55311        39.19200         0.51729
C         35.64746        41.59200         0.11353
C         34.31449        42.21106         0.29967
C         35.30395        44.32559        -0.67012
C         34.17729        43.61916         0.01934
C         35.28079        45.82723        -0.78560
C         34.31068        46.47206         0.19093
C         35.14652        48.65295        -1.01435
C         34.29872        47.98698         0.01315
C         35.02127        50.14333        -1.16404
C         33.86784        50.83957        -0.46303
C         35.09351        53.01853        -0.51108
C         33.74411        52.33583        -0.62204
C         35.02500        54.49779        -0.28196
C         33.68785        55.13843        -0.22809
C         37.40798        16.49782         1.50965
C         36.32623        17.00592         0.89588
C         37.66267        18.79873        -0.20064
C         36.41417        17.91801        -0.32077
C         37.69920        20.10095        -0.59368
C         36.52945        20.74800        -1.22948
C         37.82386        22.96363        -1.35173
C         36.56501        22.20935        -1.56292
C         37.81650        24.39029        -1.58632
C         36.58212        25.06321        -1.64945
C         37.81516        27.26596        -1.86999
C         36.53105        26.54209        -1.70449
C         37.95222        28.62241        -1.25682
C         36.68570        29.33921        -0.86636
C         37.91070        31.50097        -1.03541
C         36.69505        30.81199        -0.83388
C         37.92982        32.93274        -0.95245
C         36.73282        33.63862        -0.63477
C         38.00146        35.86876        -0.74460
C         36.80101        35.08872        -0.30446
C         37.82914        37.28341        -1.16971
C         36.75058        37.99551        -0.71291
C         37.96590        40.13276        -0.90409
C         36.83248        39.44128        -0.58457
C         38.02174        41.60306        -0.72978
C         36.74024        42.32841        -0.55952
C         37.72759        44.44169        -1.40056
C         36.61820        43.66449        -0.86723
C         37.66282        45.82754        -1.58271
C         36.50439        46.58432        -1.19315
C         37.59464        48.80288        -1.57503
C         36.45010        47.98085        -1.28927
C         37.55881        50.20824        -1.50148
C         36.23622        50.96558        -1.62659
C         37.49845        53.07322        -1.11397
C         36.31434        52.37144        -1.05546
C         37.48058        54.56891        -1.04742
C         36.22150        55.30915        -0.66536
C         37.50007        57.29172         0.09035
C         36.32965        56.64603        -0.04547
C         39.93226        15.33391         2.74397
C         39.98883        16.39014         1.82029
C         38.78598        16.83606         1.07618
C         40.18042        18.83805         0.31284
C         38.90555        18.10515         0.23521
C         40.17081        20.29128         0.02550
C         38.89679        20.95005        -0.38988
C         40.22108        23.12023        -0.63667
C         38.96312        22.32607        -0.93718
C         40.30864        24.41727        -1.42815
C         39.11439        25.05547        -1.69489
C         40.33672        27.25309        -2.17847
C         39.07635        26.48471        -2.10511
C         40.36726        28.72298        -1.95485
C         39.17423        29.39554        -1.50925
C         40.35275        31.52670        -1.46966
C         39.14251        30.79879        -1.32136
C         40.35000        32.93016        -1.44214
C         39.14733        33.62185        -1.18986
C         40.24549        35.68592        -2.10876
C         39.19739        35.10441        -1.17386
C         40.24368        37.22166        -2.17798
C         38.96509        37.98058        -1.84722
C         40.30271        40.17319        -1.93694
C         38.93476        39.51926        -1.88762
C         40.34509        41.55629        -1.88195
C         39.17312        42.32567        -1.36285
C         40.16083        44.46391        -2.39516
C         38.92547        43.70460        -1.88035
C         40.13407        45.91120        -2.24632
C         38.82804        46.57197        -2.13048
C         40.11860        48.81308        -1.91154
C         38.82520        48.10478        -2.03737
C         40.04156        50.29026        -1.79120
C         38.76226        50.99065        -1.54434
C         40.00822        53.11721        -1.04428
C         38.76841        52.38611        -1.32139
C         40.01347        54.52170        -0.77109
C         38.77954        55.31585        -0.93948
C         40.05063        57.35930         0.06904
C         38.77937        56.74033        -0.40172
C         40.05076        58.71257         0.43802
C         42.34133        15.40980         3.01781
C         41.09761        14.86501         3.34890
C         42.44018        16.47102         2.10518
C         41.24576        16.99484         1.53754
C         42.59089        19.07491         0.89830
C         41.30977        18.25604         0.83156
C         42.62973        20.00994        -0.30644
C         41.44447        20.95866        -0.31574
C         42.83402        22.92651        -0.81416
C         41.47377        22.26507        -0.69089
C         42.94052        24.28078        -1.52191
C         41.65664        25.15964        -1.38057
C         42.65627        27.23566        -2.58890
C         41.62484        26.51705        -2.08685
C         42.78729        28.73001        -2.68284
C         41.56053        29.39879        -2.08272
C         42.84051        31.54531        -1.89956
C         41.64478        30.75630        -1.44480
C         42.86037        32.99539        -1.58612
C         41.59623        33.69659        -1.53784
C         42.72707        35.89874        -1.48350
C         41.55122        35.06857        -1.69304
C         42.73573        37.33012        -1.88434
C         41.53211        37.96548        -2.18479
C         42.77467        40.18476        -2.28959
C         41.48159        39.43869        -2.54538
C         42.76824        41.57065        -2.32465
C         41.53471        42.28374        -2.19941
C         42.75227        44.51673        -2.66656
C         41.46516        43.71973        -2.53841
C         42.67303        46.02497        -2.61843
C         41.34236        46.72359        -2.43853
C         42.60608        48.83216        -1.80286
C         41.33431        48.16096        -2.03770
C         42.52832        50.19806        -1.20108
C         41.31524        51.02307        -1.47615
C         42.40216        53.02278        -0.45747
C         41.24583        52.40921        -0.97923
C         42.25105        54.32520         0.04914
C         41.17338        55.17621        -0.27824
C         42.49561        57.37104         0.09636
C         41.26612        56.62926        -0.01919
C         42.45305        58.73052         0.45589
C         41.24758        59.38644         0.67647
C         44.91541        16.25760         1.91025
C         43.74849        17.00610         1.68302
C         45.10554        18.71047         0.51927
C         43.85108        18.22988         0.97526
C         45.24268        19.88250        -0.47085
C         43.94700        20.69925        -0.52915
C         45.68316        22.87182        -1.22404
C         43.82147        21.84971        -1.23826
C         45.42551        24.19562        -1.02478
C         44.21626        24.84350        -1.55178
C         45.35481        27.11052        -1.39538
C         44.49665        26.20889        -1.97852
C         45.25283        28.57139        -1.59480
C         44.12541        29.26033        -2.02597
C         45.38411        31.53056        -1.77479
C         44.12563        30.76248        -2.05553
C         45.34257        33.03205        -1.74431
C         44.03814        33.70083        -1.66008
C         45.29424        35.89065        -1.57348
C         44.05001        35.13866        -1.40008
C         45.21521        37.28634        -1.67706
C         44.00432        37.99835        -1.89817
C         45.24561        40.21999        -1.95312
C         44.06503        39.41900        -2.45093
C         45.26357        41.61299        -2.03589
C         44.06111        42.32937        -2.61628
C         45.09768        44.51266        -1.85245
C         44.00472        43.81736        -2.27612
C         45.18460        45.99502        -1.97421
C         43.94093        46.77451        -2.30262
C         45.08979        48.84992        -1.50320
C         43.84523        48.18741        -1.85473
C         45.03385        50.35963        -1.47901
C         43.77956        50.90937        -0.81833
C         45.05668        53.20427        -0.66560
C         43.75364        52.38171        -0.47088
C         44.99704        54.69125        -0.84072
C         44.02464        55.47535        -0.10636
C         44.91715        57.57806        -0.81941
C         43.79963        56.81784        -0.30776
C         46.15505        16.77029         1.55627
C         47.63807        18.58889         0.70482
C         46.27570        17.99729         0.88168
C         47.74076        20.04353         0.30598
C         46.50680        20.74675        -0.17208
C         47.87672        22.85378        -0.18834
C         46.65130        22.07190        -0.49551
C         47.79389        24.36412        -0.20359
C         46.46108        25.02635        -0.38091
C         47.75139        27.21621        -0.51977
C         46.42650        26.51925        -0.53549
C         47.70964        28.71258        -0.65671
C         46.36671        29.35045        -0.90390
C         47.50927        31.71498        -0.29894
C         46.39028        30.84676        -0.90943
C         47.75946        33.01150        -1.06382
C         46.53065        33.79579        -1.31493
C         47.78622        35.91394        -1.24169
C         46.53784        35.18084        -1.40656
C         47.76181        37.35739        -1.29289
C         46.44771        38.02874        -1.33109
C         47.70175        40.22219        -1.34802
C         46.41313        39.52348        -1.38934
C         47.61719        41.66850        -1.18053
C         46.37929        42.34733        -1.58211
C         47.57755        44.56929        -1.13100
C         46.30473        43.79676        -1.37882
C         47.53869        46.04934        -1.18835
C         46.36771        46.71830        -1.42854
C         47.56384        48.86393        -1.09971
C         46.30036        48.17113        -1.35537
C         47.54752        50.34295        -0.95371
C         46.26961        51.07461        -0.98621
C         47.51272        53.26182        -1.44036
C         46.25314        52.53770        -1.19261
C         47.52143        54.80018        -1.47328
C         46.20367        55.52500        -1.34149
C         46.10949        56.97825        -1.12757
C         49.87310        18.76107         1.78103
C         48.76004        18.04185         1.50184
C         50.00401        20.17003         1.48403
C         48.90269        20.84215         0.81714
C         49.96070        23.07217         1.20274
C         48.93378        22.20859         0.60084
C         50.05262        24.52366         0.84915
C         48.90321        25.18464         0.34786
C         50.08210        27.35319         0.36939
C         48.91902        26.57236         0.12249
C         50.04009        28.78718         0.19776
C         48.85779        29.47814        -0.11265
C         50.11673        31.73317         0.23616
C         48.78479        30.93443         0.07559
C         50.18902        33.15398        -0.15400
C         49.01750        33.78657        -0.79776
C         50.16351        36.02735        -0.61120
C         48.95246        35.24936        -0.90226
C         50.20900        37.42082        -1.08103
C         48.94324        38.09859        -1.25269
C         50.16030        40.28989        -1.32006
C         48.91329        39.55441        -1.28676
C         50.19290        41.68781        -1.28579
C         48.92702        42.43250        -1.09577
C         50.13891        44.60178        -1.04243
C         48.89754        43.89023        -1.50041
C         50.09388        46.10633        -1.09145
C         48.75621        46.71515        -0.58567
C         49.98028        48.95650        -0.48794
C         48.73110        48.20624        -0.81477
C         50.07996        50.37615        -0.94814
C         48.80312        51.10397        -1.20134
C         49.97367        53.26955        -0.92476
C         48.79359        52.57611        -1.14725
C         49.90409        54.71465        -0.79168
C         48.75988        55.42366        -0.98168
C         52.36341        20.30120         2.37541
C         51.16534        20.88239         1.85294
C         52.42691        23.08705         1.90876
C         51.12964        22.35593         1.82567
C         52.43325        24.54829         1.55614
C         51.20433        25.26510         1.12222
C         52.44391        27.41505         1.16757
C         51.25857        26.68653         0.88760
C         52.61855        28.76314         0.65349
C         51.32093        29.53366         0.21155
C         52.60009        31.69008         0.34550
C         51.37661        30.98727         0.24870
C         52.59656        33.11215         0.25574
C         51.41464        33.81401        -0.13254
C         52.72114        35.99350        -0.72262
C         51.46893        35.30240        -0.33482
C         52.69594        37.36001        -1.06360
C         51.42989        38.06814        -1.19199
C         52.69412        40.32454        -1.31100
C         51.40788        39.52506        -1.48467
C         52.63280        41.77059        -1.08706
C         51.41344        42.45144        -1.21295
C         52.59958        44.61773        -0.91579
C         51.36986        43.91076        -1.03320
C         52.58154        46.01372        -0.43649
C         51.26857        46.73248        -0.35225
C         52.55627        48.95978        -0.24178
C         51.26809        48.23087        -0.22900
C         52.59929        50.43349        -0.58696
C         51.27679        51.16745        -0.63620
C         52.48218        53.27182        -0.43301
C         51.23630        52.54603        -0.68193
C         53.43685        21.04785         2.84253
C         54.51724        23.30986         3.23997
C         53.50423        22.46631         2.72983
C         54.27401        24.73132         3.13097
C         53.44902        25.36049         2.24261
C         54.93341        27.51637         1.86386
C         53.63833        26.74239         1.73036
C         54.95387        28.95410         1.49522
C         53.80397        29.58150         0.99748
C         55.05045        31.67319         0.81261
C         53.83074        30.97660         0.68851
C         55.11352        33.14156         0.70497
C         53.83698        33.88512         0.43508
C         55.29254        35.55782        -0.75523
C         53.94278        35.25059        -0.27599
C         55.21108        37.64273        -1.13008
C         53.91440        38.18959        -1.07583
C         55.06198        40.28766        -0.50427
C         53.89819        39.59208        -0.91537
C         55.03475        41.74211        -0.47616
C         53.85795        42.43794        -0.79213
C         55.18772        44.63867        -0.63052
C         53.88255        43.90170        -0.95184
C         55.17489        46.13556        -0.47273
C         53.83457        46.83387        -0.43650
C         54.99907        48.96419         0.12284
C         53.75856        48.27770        -0.07179
C         54.95008        50.41161         0.44948
C         53.65218        51.19140         0.19075
C         53.61281        52.65857        -0.01030
C         56.99460        23.60653         3.82671
C         55.80583        22.89132         3.74996
C         57.25752        24.97912         3.44988
C         56.16300        25.85568         3.34716
C         57.40191        27.57732         2.24350
C         56.14804        27.02022         2.57829
C         57.43164        28.87376         1.65256
C         56.21607        29.60691         1.43122
C         57.53750        31.56593         0.71873
C         56.26557        30.98200         1.05973
C         57.66019        32.96186         0.24699
C         56.45374        33.81255         0.46632
C         57.72348        35.90553        -0.30433
C         56.47968        35.13327        -0.21269
C         57.64139        37.42424        -0.44866
C         56.32996        38.18678        -0.48018
C         57.29031        40.23186         0.64177
C         56.23074        39.55526        -0.14082
C         57.15977        41.70647         0.75926
C         56.18160        42.45556         0.03601
C         57.27394        44.59685         0.72831
C         56.23468        43.87916         0.07069
C         57.42362        46.04831         0.60382
C         56.37562        46.82595         0.06477
C         57.40348        49.12472         0.04436
C         56.26419        48.29048         0.09780
C         57.37550        50.53438         0.23397
C         56.19870        51.15976         0.53270
C         59.75347        24.81558         3.21783
C         58.54519        25.52904         3.05962
C         59.87028        27.48174         2.21875
C         58.60986        26.86722         2.52944
C         59.92016        28.84007         1.68177
C         58.67710        29.44420         1.29741
C         60.46576        31.79062         0.74216
C         58.61791        30.69504         0.62126
C         60.23149        33.17619         0.75599
C         59.00434        33.77383         0.16653
C         60.17242        36.01086         0.27014
C         58.89311        35.27423         0.10195
C         60.17637        37.52951         0.13944
C         58.85227        38.23234        -0.02658
C         59.90393        40.23442         1.19394
C         58.66389        39.52076         0.77041
C         59.86062        41.39545         1.97899
C         57.98716        42.43584         1.60486
C         59.34778        44.42124         2.15058
C         58.20104        43.83621         1.51491
C         59.44755        45.86818         2.11344
C         58.63143        46.61752         1.20887
C         60.14765        48.54194         1.58662
C         59.12223        47.90626         0.89048
C         60.97265        25.40942         2.89830
C         61.03980        26.71986         2.41747
C         61.11358        29.61949         1.80057
C         61.31546        30.97912         1.54905
C         61.19672        34.05246         1.36735
C         61.23267        35.37700         1.07296
C         61.32380        38.33784         0.57839
C         61.18870        39.64008         0.93729
C         60.86473        42.37350         2.20679
C         60.54693        43.70680         2.45529
C         60.44392        46.53302         2.87181
C         60.76405        47.86343         2.64643
O         46.78466        44.13145         0.00171
O         36.14143        40.87291         1.30963
O         34.77112        45.01681        -1.87232
O         30.12256        45.03631         0.01666
O         27.19119        25.41314        -3.08844
O         31.04643        41.96012         3.20013
O         52.92164        23.54163         0.59286
O         46.16165        38.81441        -0.10160
O         34.52693        49.24016        -2.21030
O         54.70036        26.68428         0.65515
O         27.62350        47.31911         4.17044
O         33.61445        20.14897        -2.91045
O         57.64858        39.43184         1.81788
O         48.06898        27.85304        -1.79605
O         54.60229        46.74592        -1.67903
O         36.59821        55.16676        -2.06232
O         32.58609        50.18430        -0.68691
O         32.18749        22.74803        -3.20188
O         33.18790        48.17444         2.10541
O         38.56871        47.43048        -3.31225
O         28.48602        48.80060         0.85406
O         39.17139        35.72032         0.15168
O         42.10481        43.97356        -3.85475
O         49.58293        50.55268        -2.32433
O         29.75486        46.27392         3.09639
O         54.88350        44.25318        -1.99485
O         39.64481        26.80390        -3.41859
O         28.41447        44.09016         3.92344
O         44.93273        46.49883        -3.34473
O         39.26584        37.56431        -3.23153
O         59.70080        31.05460        -0.18198
O         32.33601        28.79539         0.79237
O         39.34299        20.98825         1.04743
O         50.71003        35.93884         0.75777
O         58.64614        41.72251         2.60842
O         39.10488        42.19387         0.09464
O         48.75709        33.05495        -2.10970
O         45.15321        55.06131        -2.24148
O         30.19257        23.52833        -0.27598
O         35.30255        53.58020         0.83810
O         48.22255        42.10492         0.11377
O         37.54062        28.68352         0.15892
O         30.25105        32.80200         1.80181
O         36.91604        27.16707        -3.01373
O         49.25335        31.38323         1.38496
O         48.07183        18.96355        -0.64550
O         36.70872        21.17283        -2.61120
O         43.34768        35.59713        -0.18936
O         47.62510        54.04495        -2.70498
O         38.85868        56.45260        -1.84339
O         53.95387        50.73961         1.51974
O         28.88532        40.34598         3.80418
O         52.25452        28.94291        -0.74828
O         25.96603        29.03474         0.76204
O         54.99129        25.52909         4.02879
O         26.40796        34.76987         2.80471
O         33.63509        35.53157        -1.63743
O         24.73311        47.41765         1.70233
O         43.04948        50.14348         0.18190
O         24.47068        24.79092        -0.72983
O         50.06750        22.90643         2.67794
O         43.38887        31.28423        -3.20736
O         46.05293        25.89625         0.73305
O         46.85183        50.68187         0.31172
O         58.63993        48.57770        -0.25722
O         44.85235        22.20096        -2.12292
O         52.20109        39.92199        -2.64495
O         36.30630        35.32620         1.06790
O         55.36256        36.44274        -1.82860
O         44.62473        52.69238         0.65092
O         55.90822        33.73505         1.80981
O         40.86450        50.91385        -2.85818
O         43.25917        54.83328         0.87545
O         35.34550        38.09221         1.27198
O         26.86053        41.68448         4.52133
O         51.78294        46.07976         0.82524
O         50.41855        48.73816         0.88824
O         34.97777        19.84255         0.44965
O         39.00120        16.76680        -0.37776
O         58.47955        38.14921        -1.43269
O         58.37270        33.15113        -0.99440
O         23.57720        40.47057         4.61655
O         53.81166        35.11418         1.19597
O         41.99066        46.55969        -3.78114
O         60.57786        36.67695        -0.97619
O         45.78983        30.09951         0.21104
O         45.81149        32.25635        -2.95233
O         48.28489        23.63231        -1.38110
O         43.79384        26.61072        -3.10457
O         39.14385        43.88178        -3.30311
O         41.76033        25.56518         0.04411
H         41.09299        25.04377         0.56352
O         41.30819        39.47494        -4.02635
H         41.14052        40.41077        -4.27459
O         41.92326        30.50097        -0.01667
H         41.12547        30.09077         0.38175
O         33.14467        50.87926         2.91777
H         32.64099        51.34749         3.61613
O         42.47175        19.16771        -1.49008
H         43.36612        18.84821        -1.75706
O         40.09458        23.56242         0.77112
H         39.91198        22.73647         1.29385
O         39.97266        35.16860        -3.43316
H         39.48919        35.86779        -3.93176
O         38.31726        39.87563        -3.16994
H         38.74686        39.30048        -3.84781
O         31.22112        41.48538        -0.45979
H         31.69297        41.87784        -1.22664
O         32.47499        46.06540        -1.31650
H         31.59507        45.65218        -1.45042
O         44.23588        42.29506        -4.05816
H         43.50043        42.82751        -4.44897
O         36.53755        17.09632        -1.49986
H         37.41988        16.65373        -1.44510
O         26.02198        36.99783         3.86462
H         26.48320        36.13954         4.03102
O         48.72611        46.45691         0.83355
H         47.97179        46.93713         1.23298
O         45.42661        19.25511        -1.76904
H         45.62728        19.96902        -2.41337
O         34.82637        46.13078         1.49262
H         34.33495        46.66317         2.16299
O         50.24409        46.51085        -2.48203
H         49.68650        45.91017        -3.03008
O         53.08444        50.48249        -1.97759
H         52.35658        50.19586        -2.57099
O         30.03605        35.12849         2.67571
H         30.38634        34.22698         2.88488
O         48.89557        43.94218        -2.97638
H         49.71060        43.49788        -3.29743
O         42.55400        19.89395         2.09287
H         42.53238        19.29956         2.87141
O         43.24669        23.20814         0.57012
H         42.86601        24.08543         0.81390
O         28.92203        38.48269        -0.33183
H         29.62227        39.05620        -0.71417
O         42.83547        29.04622        -4.09084
H         43.47983        28.43446        -4.50621
O         44.93422        50.79222        -2.87013
H         44.33104        50.18871        -3.35508
O         46.94333        32.23732         0.92257
H         46.62106        31.47733         1.45692
O         44.25701        39.22474        -3.89799
H         43.36139        39.21257        -4.31258
O         36.08404        51.16086        -3.05837
H         35.63822        50.35460        -3.40991
O         33.66560        39.99410         2.62882
H         34.59655        40.29321         2.73963
O         33.25543        52.57937        -1.95781
H         32.56373        51.90858        -2.14631
H         22.05887        24.20556        -1.35395
H         20.26617        25.82328        -2.08451
H         20.76820        28.23398        -2.13348
H         21.13589        30.06414        -2.27403
H         21.26652        32.36663        -1.49830
H         21.20204        33.98419        -0.42874
H         21.26937        36.16913         0.66425
H         21.21428        37.48224         2.16853
H         21.37367        39.37724         3.79167
H         21.59875        42.04373         4.87564
H         21.50872        44.42713         4.16041
H         21.39234        46.11351         3.38081
H         23.51287        49.81503         3.68632
H         21.40331        48.53614         3.58306
H         24.55476        22.71216        -2.29464
H         25.35345        50.82864         3.63041
H         26.57280        21.61604        -3.03575
H         27.56229        51.89247         3.72992
H         30.12951        19.11932        -1.82958
H         28.13576        20.42338        -2.43882
H         31.10369        54.07834         2.22365
H         29.31119        52.82476         3.32070
H         31.80025        18.05406        -1.28337
H         31.62484        54.88583         0.24834
H         33.78048        16.94710        -0.43583
H         33.60176        56.20991        -0.45639
H         37.28007        15.84036         2.38271
H         35.32405        16.72860         1.25663
H         37.51431        58.24264         0.64066
H         35.41920        57.07656         0.39725
H         38.97114        14.85810         2.98203
H         39.10832        59.27065         0.50622
H         43.24160        15.00139         3.49622
H         41.04166        14.03746         4.06911
H         43.39556        59.28360         0.56852
H         41.23658        60.44435         0.97114
H         44.86425        15.27328         2.39345
H         44.85125        58.67549        -0.82942
H         47.04672        16.17679         1.79298
H         46.99088        57.59947        -1.34122
H         50.68481        18.27146         2.33694
H         48.71959        16.99786         1.84084
H         50.79363        55.25624        -0.44285
H         48.74381        56.49604        -0.73659
H         52.42695        19.20752         2.46617
H         52.49481        54.36300        -0.55763
H         54.27088        20.51637         3.32391
H         54.49524        53.26321         0.24362
H         57.87801        23.00354         4.09395
H         55.89754        21.81500         3.96999
H         58.32434        51.08639         0.21223
H         56.17787        52.22498         0.79754
H         59.73789        23.78981         3.61089
H         60.46711        49.54908         1.29106
H         61.90185        24.83726         3.02853
H         62.02217        27.13897         2.16047
H         61.93599        29.13282         2.34877
H         62.18918        31.44699         2.02845
H         62.01171        33.60364         1.95353
H         62.06408        35.99634         1.43534
H         62.32547        37.90318         0.46024
H         62.08536        40.22095         1.19631
H         61.92947        42.10551         2.14126
H         61.41398        44.33880         2.70006
H         60.97882        45.98636         3.65920
H         61.54062        48.35780         3.24495
