         260
 CSIRO Nanostructure Databank - Neutral Graphene Oxide Data Set
C         30.18295        31.67237         0.15187
C         30.29821        32.94229         0.31787
C         30.34167        36.14142         0.53941
C         30.37739        37.40455         0.74786
C         30.81869        40.28753         2.41100
C         31.09758        41.39126         2.95369
C         32.50336        28.82797        -0.68622
C         31.45719        29.44914        -0.42576
C         32.58019        31.53435        -0.10436
C         31.22313        30.82566        -0.14327
C         32.63939        33.04332         0.15674
C         31.35828        33.82150         0.32873
C         32.69567        35.97556         0.67743
C         31.38802        35.23977         0.46886
C         32.72274        37.51571         0.76704
C         31.41039        38.30724         0.80763
C         32.30884        40.62130         0.70232
C         31.40707        39.69924         1.25753
C         32.70444        41.87190         1.28140
C         32.11721        42.28349         2.54661
C         33.76179        44.00433         2.53561
C         32.78199        43.42406         3.06684
C         35.40397        27.24266        -0.59420
C         35.15533        28.64951        -0.95337
C         33.83583        29.36368        -1.00319
C         35.03083        31.58727        -0.41322
C         33.74645        30.92974        -0.93099
C         35.03512        33.08316        -0.62329
C         33.82576        33.83413        -0.23022
C         35.19424        35.98122         0.02623
C         34.00241        35.15134         0.51450
C         35.36074        37.40651         0.50679
C         34.07082        38.22819         0.57131
C         35.33918        40.24196        -0.33113
C         34.16570        39.57259        -0.04449
C         35.37565        41.67026        -0.54566
C         33.77526        42.63460         0.69696
C         35.63988        44.34486         0.79610
C         34.45363        43.70854         1.32431
C         36.02780        45.69038         1.13698
C         37.76379        26.62185        -0.45542
C         36.33437        26.48353        -0.29362
C         37.65416        28.84087        -0.71927
C         36.42123        29.43316        -0.69455
C         37.61443        31.64586        -0.37823
C         36.33749        30.86691        -0.28966
C         37.63502        33.00178        -0.56940
C         36.36790        33.77581        -0.72199
C         37.73082        35.84181         0.04127
C         36.41352        35.25487        -0.45251
C         37.79863        37.30193        -0.28274
C         36.65218        38.09355         0.12161
C         37.80392        40.20816        -0.92002
C         36.65031        39.56990        -0.20089
C         37.78871        41.71746        -0.96775
C         36.55181        42.40842        -0.50357
C         37.83676        44.55141        -0.40778
C         36.59972        43.79164        -0.09425
C         37.74419        46.09156        -0.43801
C         37.00749        46.40145         0.84729
C         40.15733        24.51370         1.30061
C         39.10585        25.12066         1.02777
C         40.20411        27.10487         0.19726
C         38.87723        26.30518         0.27101
C         40.17707        28.61865        -0.02296
C         38.86771        29.39695        -0.08609
C         40.15470        31.52882        -0.47507
C         38.86660        30.90686        -0.05796
C         40.14047        32.96124        -0.85379
C         38.90073        33.74328        -0.61042
C         40.26399        35.76146        -0.00576
C         38.95797        35.08631        -0.38167
C         40.31372        37.26012        -0.25919
C         39.06108        37.95073        -0.65792
C         40.40864        40.17363        -0.87050
C         39.09593        39.42688        -0.99594
C         40.39455        41.68905        -0.76378
C         39.08961        42.46430        -0.94348
C         40.39748        44.59928        -0.50123
C         39.03566        43.91380        -0.60363
C         40.24789        46.04122        -0.02219
C         39.08296        46.78953        -0.71973
C         40.15593        48.83537         0.26340
C         39.20663        48.19442        -0.19395
C         42.75938        24.64763         1.53746
C         41.45130        25.14076         1.24445
C         42.67060        27.31160         1.01828
C         41.43617        26.48990         0.83566
C         42.69638        28.79145         0.67301
C         41.38464        29.45953         0.38327
C         42.75926        31.55074        -0.42917
C         41.44681        30.90247        -0.05977
C         42.72988        32.89443        -1.14026
C         41.43923        33.68595        -1.02498
C         42.78026        35.87707        -0.61935
C         41.46660        35.14245        -0.71027
C         42.75673        37.15040         0.24097
C         41.49466        37.92312        -0.14317
C         42.73058        40.09381         0.27782
C         41.60430        39.38188        -0.41412
C         42.64772        41.58460         0.40646
C         41.53734        42.37072        -0.15384
C         42.65691        44.48609         0.76905
C         41.30869        43.75340         0.45399
C         42.67753        45.97766         0.94651
C         41.41987        46.76699         0.57759
C         42.74048        48.78669         0.95047
C         41.55412        48.30659         0.17038
C         43.87768        25.17641         1.38697
C         45.24743        27.35565         1.02407
C         44.02439        26.63917         1.35677
C         45.24025        28.67938         0.32646
C         43.97487        29.47750         0.25966
C         45.31317        31.39666        -0.67402
C         44.01206        30.73199        -0.31172
C         45.32836        32.89390        -1.03384
C         44.02945        33.65475        -1.23373
C         45.34904        35.78476        -0.64422
C         44.04853        35.14570        -0.96542
C         45.34127        37.22169        -0.26058
C         44.07573        37.92764         0.13274
C         45.22285        40.11836         0.09179
C         44.05540        39.41774         0.15755
C         45.23387        41.55760         0.43557
C         43.94392        42.31327         0.61239
C         45.28684        44.48205         0.42755
C         43.92515        43.79392         0.24453
C         45.29223        45.96838         0.73974
C         44.03462        46.69961         1.06187
C         43.79968        48.14445         0.98622
C         47.68019        27.52219         1.31541
C         46.56196        26.94831         1.24577
C         47.97874        28.68345         0.37522
C         46.58960        29.36159         0.06028
C         47.75549        31.58818        -0.10558
C         46.58920        30.82674        -0.17418
C         47.74031        33.02004        -0.40139
C         46.56380        33.66719        -0.79487
C         47.81426        35.87768        -1.17564
C         46.53453        35.12234        -0.83644
C         47.67835        37.39788        -1.02476
C         46.53533        38.02053        -0.62614
C         47.82263        40.07929         0.01953
C         46.46799        39.54979        -0.57630
C         47.83345        41.58669         0.29991
C         46.52779        42.32627         0.35905
C         47.71301        44.47941        -0.47356
C         46.44980        43.80527         0.16998
C         47.56417        45.91586        -0.09082
C         46.56257        46.53579         0.26592
C         49.97847        29.41103         1.87468
C         48.95318        29.66810         0.94228
C         50.15154        31.81471         0.52929
C         48.98009        30.99180         0.45262
C         50.14277        33.14550         0.11494
C         48.92869        33.82960        -0.19852
C         50.08713        35.96288         0.09471
C         48.97794        35.22948        -0.43855
C         50.74479        36.95137        -0.76389
C         48.65778        38.34595        -1.66849
C         50.28726        40.29436        -0.85222
C         48.92667        39.66801        -0.95641
C         50.45504        41.52342         0.07471
C         49.14572        42.35352         0.15126
C         50.27614        44.29976        -0.82678
C         49.04713        43.84360        -0.14527
C         50.82043        29.97431         2.61549
C         51.93307        32.23631         3.11366
C         51.49995        31.19614         2.33719
C         51.92990        33.53208         2.85419
C         52.04061        34.83924         2.94004
C         51.92328        37.18903         1.90232
C         51.55213        35.83381         2.12306
C         51.72681        38.03338         1.01581
C         51.40279        38.12895        -0.36599
C         52.79474        40.18441        -0.84431
C         51.54479        39.36898        -1.21186
C         52.69445        41.45318        -0.82375
C         51.70390        42.35130        -0.48096
C         51.37328        43.68642        -0.71483
O         47.27258        41.91778         1.59256
O         32.97186        40.17246        -0.46080
O         32.74594        36.66369         1.96469
O         40.03373        31.90391        -1.87962
O         43.37656        36.03196        -1.93197
O         49.25701        43.37940         1.19513
O         44.88765        46.20371         2.10876
O         39.95457        42.24023        -2.10434
O         34.88736        37.91892         1.75871
O         32.91821        32.01563         1.21177
O         45.00359        37.42246         1.17581
O         37.03138        39.15025         1.13774
O         37.51166        40.90303        -2.15626
O         38.72326        30.14521         1.16671
O         42.58835        45.06422         2.09045
O         40.47895        27.71014        -1.11308
O         48.99193        38.21143        -2.83357
O         50.39709        35.53697         1.36044
O         43.20969        27.22724         2.39678
O         39.07897        38.45598        -2.06879
O         41.42639        39.73188        -1.82074
O         42.33425        40.66742         1.55713
O         35.57950        35.99772        -1.38608
O         43.35761        33.12660        -2.41619
O         44.65187        41.87399         1.77098
O         47.98471        35.71385        -2.65440
O         40.30048        46.34089         1.39431
O         35.49114        31.15365         0.88882
O         45.91404        28.61894        -1.00812
O         45.46335        31.85634        -2.05398
O         36.92214        46.53565        -1.56605
O         34.14351        42.35480        -0.62477
O         42.14779        31.75190         0.90012
O         41.87486        29.40458         1.74188
O         49.40933        40.64774        -1.94256
O         41.23274        34.69108        -2.06429
O         34.47860        28.91788        -2.21881
O         35.63146        33.43985        -1.93452
O         51.45383        31.37318         0.88222
O         37.91276        27.66001        -1.41422
O         39.34730        46.77782        -2.10584
H         38.51575        46.96436        -2.59415
O         50.66221        36.59741        -2.05981
H         50.99420        37.33596        -2.63406
O         35.64286        45.87917        -1.56602
H         35.06968        46.50565        -1.05856
O         43.75936        43.83083        -1.20824
H         42.84596        44.14705        -1.45702
O         48.08620        39.39042         1.24777
H         47.72254        39.94243         1.97923
O         42.62845        36.76215         1.62955
H         43.52014        36.84534         2.04976
O         37.63638        35.71236         1.49619
H         38.55638        35.74412         1.86180
O         51.50648        39.04953        -2.58198
H         51.08461        39.78644        -3.07641
O         41.08619        44.63388        -1.77213
H         40.76744        43.84944        -2.29495
O         46.35552        40.06551        -1.92418
H         46.99113        39.61389        -2.52099
O         48.49885        28.20913        -0.84657
H         47.75338        27.81903        -1.35783
O         33.51391        31.38293        -2.26921
H         33.99270        30.78910        -2.89053
O         47.54622        44.31374        -1.87689
H         46.76181        44.81938        -2.17608
O         40.34637        35.48609         1.42037
H         41.11060        35.98631         1.80925
O         40.60157        43.54488         1.68049
H         41.00791        44.13512         2.36298
O         41.91939        48.30682        -1.19157
H         41.88345        49.22056        -1.54112
O         48.23831        34.31377        -2.91828
H         47.57096        34.10234        -3.61643
O         34.38493        34.72956         1.84607
H         34.00270        35.37529         2.48858
O         51.34427        33.75657         0.00023
H         52.02594        33.08121         0.23782
O         50.75744        41.06126         1.37693
H         50.63924        41.80692         2.00519
