         620
 CSIRO Nanostructure Databank - Neutral Graphene Oxide Data Set
C         22.89208        27.36873         0.31265
C         22.89940        28.76911         0.38028
C         22.91130        31.69342         0.35053
C         22.92802        33.09085         0.36751
C         22.85273        36.04821         0.60270
C         22.88315        37.39508         0.63596
C         22.95386        40.42534         0.31554
C         23.01062        41.75753         0.06648
C         23.04519        44.55113        -0.87029
C         23.06235        45.85900        -1.27094
C         25.20362        24.47383         0.08918
C         24.06477        25.20089         0.18465
C         25.34190        27.34499         0.19744
C         24.08081        26.64604         0.22595
C         25.34585        28.79376         0.29342
C         24.09559        29.49726         0.37928
C         25.32799        31.64926         0.66047
C         24.10361        30.95232         0.46590
C         25.33497        33.09037         0.77509
C         24.10523        33.80541         0.57697
C         25.28414        36.01259         1.04304
C         24.13963        35.29960         0.34395
C         25.32548        37.48342         0.79046
C         24.14201        38.13438         0.56778
C         25.45202        40.26738        -0.04544
C         24.13139        39.56184         0.13397
C         25.46025        41.73742        -0.21383
C         24.24016        42.44263        -0.28421
C         25.50861        44.49002        -0.84040
C         24.26072        43.82549        -0.64880
C         25.52794        45.88092        -1.19316
C         24.29872        46.55820        -1.43735
C         25.51101        48.59561        -1.95080
C         24.31194        47.91206        -1.84000
C         27.85543        22.89001         0.40866
C         27.80172        24.35146         0.16720
C         26.51258        25.13973         0.01390
C         27.82212        27.30257         0.09629
C         26.53201        26.61322         0.16027
C         27.84301        28.83348         0.22542
C         26.55305        29.51239         0.38485
C         27.78631        31.55834         0.97587
C         26.56292        30.91229         0.67911
C         27.73376        32.97393         1.38227
C         26.53372        33.76926         1.08718
C         27.85520        35.98250         1.30589
C         26.53656        35.24031         1.32680
C         27.85891        37.50771         1.37519
C         26.60375        38.22547         0.97047
C         27.90303        40.20602         0.16126
C         26.70923        39.59107         0.37595
C         27.92686        41.56907        -0.44365
C         26.69073        42.38176        -0.45649
C         27.99991        44.47584        -0.85926
C         26.73890        43.77083        -0.71922
C         28.01046        45.88646        -1.07078
C         26.76129        46.59520        -1.29158
C         27.98069        48.77096        -1.60475
C         26.73653        47.96446        -1.65443
C         28.13085        50.02547        -2.33779
C         30.31888        22.98187         0.58681
C         29.04318        22.26667         0.58118
C         30.29371        24.36424         0.67107
C         29.01188        25.09314         0.65524
C         30.32731        27.32487         0.58935
C         29.03475        26.59097         0.60537
C         30.32092        28.74501         0.65336
C         29.07693        29.49084         0.68699
C         30.28364        31.54296         1.41210
C         29.02265        30.84532         1.03819
C         30.33039        33.01496         1.43956
C         29.03031        33.67476         1.68926
C         30.35309        35.72002         2.04189
C         29.07299        35.15758         1.57248
C         30.28122        37.90964         1.82088
C         29.16355        38.23678         1.13902
C         30.45084        40.25524         0.41063
C         29.20612        39.41182         0.18325
C         30.41773        41.69504         0.11258
C         29.22742        42.31294        -0.53578
C         30.46424        44.47309        -0.79925
C         29.23345        43.78906        -0.70281
C         30.48102        45.86501        -1.09703
C         29.25337        46.56544        -1.15302
C         30.56129        48.67764        -1.64479
C         29.29620        48.02675        -1.28805
C         30.56654        50.02721        -2.00611
C         29.34068        50.65636        -2.41159
C         32.69937        20.21750        -0.39049
C         31.60536        20.85304         0.06570
C         32.75779        22.99981         0.23065
C         31.57657        22.28808         0.34154
C         32.84091        24.39807         0.67065
C         31.52017        25.14480         0.86176
C         32.78242        27.29631         0.58818
C         31.53736        26.61266         0.67256
C         32.77471        28.70961         0.58134
C         31.56875        29.41909         0.71659
C         32.79774        31.66190         0.92837
C         31.59842        30.83811         1.12930
C         32.78501        33.03099         1.14932
C         31.52412        33.72663         1.36758
C         32.82440        35.95924         1.64928
C         31.54881        35.16664         1.67630
C         32.84183        37.51364         1.55645
C         31.65048        38.50964         1.75073
C         32.90627        40.35992         0.64498
C         31.63791        39.70644         0.84237
C         32.95679        41.68578         0.19152
C         31.71611        42.46660         0.07912
C         32.93454        44.41451        -0.80482
C         31.73810        43.79943        -0.56982
C         33.02264        45.77711        -1.45373
C         31.73223        46.55595        -1.33225
C         33.08775        48.56442        -1.98393
C         31.77144        47.91050        -1.59971
C         33.03214        50.07070        -1.89915
C         31.83914        50.75059        -2.02122
C         32.91750        52.94116        -1.73486
C         31.80383        52.19709        -1.93078
C         35.34293        18.81753        -0.91569
C         35.21965        20.17112        -0.24113
C         33.97153        20.91784        -0.80542
C         35.25551        23.11967        -0.28345
C         33.95452        22.40196        -0.41293
C         35.34201        24.40148         0.52955
C         34.06627        25.19426         0.45783
C         35.30862        27.32193         0.51256
C         34.05323        26.57446         0.51873
C         35.31952        28.72804         0.55378
C         34.04317        29.45554         0.41272
C         35.31519        31.63805         0.84848
C         34.04209        30.96540         0.54210
C         35.27511        33.07838         1.01946
C         34.03371        33.78673         1.11086
C         35.25310        35.90586         1.01290
C         34.04526        35.20182         1.22584
C         35.22000        37.34986         0.69449
C         34.04967        38.17651         0.98687
C         35.36560        40.23075         0.44498
C         34.10526        39.55491         0.68523
C         35.39821        41.63356         0.16151
C         34.18882        42.30319        -0.11443
C         35.47529        44.46497        -0.40856
C         34.20162        43.67777        -0.61764
C         35.31907        45.93628        -0.24662
C         34.20557        46.61023        -0.95089
C         35.44185        48.74849        -0.89713
C         34.24726        47.95487        -1.20037
C         35.49445        50.13853        -1.25495
C         34.31148        50.79305        -1.83363
C         35.40464        53.03445        -1.12777
C         34.25696        52.33798        -1.75072
C         35.25531        54.32917        -0.61125
C         37.77461        18.71414        -0.51218
C         36.49925        18.14345        -1.00558
C         37.78609        20.21818        -0.30763
C         36.51022        20.97598        -0.39402
C         37.77260        23.12233        -0.45746
C         36.51475        22.33337        -0.37277
C         37.78908        24.54362        -0.01386
C         36.57718        25.21412         0.22721
C         37.79277        27.34144         0.39429
C         36.56015        26.61822         0.40682
C         37.79376        28.75671         0.61166
C         36.53437        29.46214         0.68382
C         37.74546        31.56458         1.29576
C         36.49408        30.88722         0.89364
C         37.74445        33.06099         1.32077
C         36.48995        33.79972         1.06361
C         37.74701        35.93264         0.77183
C         36.49487        35.21434         0.94647
C         37.81292        37.31533         0.63257
C         36.56758        38.07509         0.46192
C         37.83246        40.22338         0.60582
C         36.59603        39.53675         0.54190
C         37.84298        41.66182         0.53533
C         36.64116        42.36755         0.24007
C         37.83981        44.53090         0.41716
C         36.66311        43.78545         0.14603
C         37.84920        45.99427         0.30843
C         36.55957        46.72961         0.12269
C         37.77307        48.92114        -0.07531
C         36.55500        48.14282        -0.29169
C         37.85174        50.27215        -0.61805
C         36.68675        50.91055        -1.07704
C         37.81962        53.11111        -0.64015
C         36.66351        52.37463        -1.05582
C         37.60567        54.38829        -0.08532
C         36.33914        54.98173        -0.03554
C         40.34084        15.99283        -1.13594
C         39.11813        16.65763        -1.01094
C         40.27862        18.79091        -0.75928
C         39.07076        18.04430        -0.79399
C         40.27638        20.22726        -0.59592
C         39.06328        20.91652        -0.47446
C         40.32601        23.06731        -0.24680
C         39.06904        22.37693        -0.52385
C         40.29620        24.45776         0.30895
C         39.01706        25.22805         0.07761
C         40.28384        27.33819         0.32918
C         39.02979        26.63215         0.28024
C         40.27662        28.74449         0.51246
C         39.04144        29.42798         0.68998
C         40.31317        31.60964         0.90793
C         39.06573        30.83917         1.11443
C         40.30808        33.00126         0.89913
C         39.05717        33.76569         1.11659
C         40.31048        35.90143         0.51336
C         38.99066        35.16135         0.60953
C         40.29221        37.35876         0.66248
C         39.06303        38.04537         0.63666
C         40.29926        40.17238         0.78438
C         39.06644        39.48398         0.67990
C         40.29159        41.64138         0.97647
C         39.04319        42.39809         0.71432
C         40.31326        44.54237         0.89276
C         39.03944        43.80544         0.69454
C         40.31571        46.03894         0.64401
C         39.03123        46.70356         0.33700
C         40.36032        48.86028        -0.04118
C         39.07335        48.18125         0.25376
C         40.38795        50.22864        -0.37001
C         39.14511        50.94381        -0.72362
C         40.49429        53.16053        -0.65807
C         39.16317        52.49206        -0.80331
C         40.63620        54.61487        -0.72681
C         39.67236        55.52362        -0.27005
C         40.84688        57.43912        -1.17468
C         39.77634        56.91868        -0.47537
C         42.82593        16.02767        -1.15285
C         41.54372        16.70708        -1.12707
C         42.73342        18.87617        -1.07794
C         41.52178        18.13236        -0.99823
C         42.74480        20.26997        -0.84218
C         41.51727        20.95584        -0.62738
C         42.77650        23.10203        -0.32308
C         41.52409        22.37860        -0.38347
C         42.77458        24.52034        -0.13876
C         41.55619        25.23060         0.04052
C         42.77500        27.35818         0.19279
C         41.53473        26.63243         0.18109
C         42.76572        28.77437         0.38710
C         41.53116        29.46998         0.55152
C         42.77219        31.60151         0.69392
C         41.53588        30.88487         0.70558
C         42.77050        33.02382         0.78120
C         41.53752        33.73722         0.79138
C         42.76267        35.87434         0.86092
C         41.55105        35.15549         0.77075
C         42.75625        37.31148         0.86136
C         41.53210        38.04550         0.79300
C         42.80045        40.16727         0.74274
C         41.53302        39.47722         0.81897
C         42.84546        41.61325         0.60388
C         41.61187        42.37652         0.89697
C         42.74428        44.52011         0.37061
C         41.59159        43.83498         0.67011
C         42.76867        45.96636         0.22213
C         41.58104        46.70646         0.27923
C         42.81126        48.81338        -0.12257
C         41.57573        48.12281         0.03235
C         42.82694        50.20885        -0.37205
C         41.62214        50.92547        -0.52529
C         42.93186        52.99167        -1.02578
C         41.64231        52.36963        -0.75827
C         42.97323        54.37253        -1.49826
C         41.83066        55.18639        -1.28330
C         43.07734        57.09207        -2.20089
C         41.91170        56.58313        -1.57032
C         43.97940        16.71497        -1.28419
C         45.24622        18.92077        -1.31752
C         43.96069        18.18729        -1.61845
C         45.23164        20.30334        -0.98160
C         43.99564        21.00037        -0.79461
C         45.24054        23.12196        -0.46816
C         43.99604        22.40185        -0.53531
C         45.24595        24.53939        -0.26224
C         44.01725        25.24260        -0.13468
C         45.25125        27.37984         0.10826
C         44.00920        26.66171         0.04881
C         45.25145        28.78741         0.31279
C         44.01024        29.48593         0.43462
C         45.24769        31.61718         0.65927
C         44.00920        30.89922         0.59567
C         45.23927        33.03343         0.80574
C         44.00266        33.74298         0.83523
C         45.23378        35.87544         1.02825
C         43.99783        35.16228         0.91195
C         45.22917        37.30613         0.98872
C         43.99961        38.00843         0.88853
C         45.26259        40.08525         0.38621
C         43.98852        39.43266         0.72927
C         45.26709        41.55282         0.05486
C         43.99955        42.28867         0.27793
C         45.28223        44.50435        -0.06273
C         43.97784        43.75438         0.05924
C         45.26812        45.95605         0.19667
C         44.03374        46.65850         0.11380
C         45.27303        48.77449         0.19689
C         44.04507        48.07614         0.03234
C         45.27616        50.21155         0.15570
C         44.16500        50.84114        -0.66289
C         45.36661        53.04412        -1.15997
C         44.13115        52.34160        -0.81112
C         45.30424        53.95360        -2.35489
C         44.12525        54.90344        -2.10851
C         44.14700        56.26050        -2.49047
C         47.67353        18.96144        -1.44828
C         46.46581        18.27252        -1.52679
C         47.71004        20.33503        -1.14639
C         46.47470        21.01484        -0.85363
C         47.71512        23.11991        -0.31985
C         46.45865        22.40412        -0.56810
C         47.72561        24.58213        -0.29326
C         46.49164        25.26747        -0.20984
C         47.73506        27.38366         0.08932
C         46.49009        26.68254        -0.02375
C         47.73278        28.80596         0.30253
C         46.49733        29.50024         0.39804
C         47.71827        31.64635         0.65991
C         46.48641        30.91970         0.58000
C         47.71202        33.04518         0.88179
C         46.46674        33.75105         0.95537
C         47.68909        35.86492         1.57457
C         46.44433        35.15340         1.12915
C         47.70092        37.32563         1.22443
C         46.49214        38.02281         1.01196
C         47.72370        40.15531         0.93304
C         46.52088        39.41954         0.77451
C         47.75830        41.60199         0.74662
C         46.58934        42.27325         0.13115
C         47.76680        44.50756         0.58892
C         46.59464        43.78055         0.06627
C         47.72725        45.93257         0.64699
C         46.48081        46.63413         0.43247
C         47.68015        48.76707         0.71321
C         46.46538        48.05959         0.49334
C         47.64909        50.18574         0.81554
C         46.40254        50.86853         0.60987
C         47.80195        53.43138        -0.82168
C         46.50776        52.93484        -0.40977
C         47.78062        54.30111        -1.98781
C         46.63292        54.61346        -2.63550
C         50.04849        20.57255        -1.97389
C         48.94503        21.06754        -1.26280
C         50.20943        23.25140        -0.99134
C         49.04855        22.40509        -0.68663
C         50.20688        24.61655        -0.64196
C         48.96512        25.28603        -0.27309
C         50.27010        27.35919         0.26651
C         48.95791        26.67999        -0.04092
C         50.22232        28.86320         0.20049
C         48.97590        29.53449         0.35013
C         50.19053        31.67648         0.53428
C         48.96208        30.94876         0.50655
C         50.18798        33.08591         0.75602
C         48.95414        33.77701         0.95229
C         50.18839        35.88664         1.24649
C         48.96336        35.16514         1.18475
C         50.18306        37.32249         1.37720
C         48.93099        38.02650         1.27621
C         50.14074        40.16917         1.55999
C         48.91014        39.44575         1.22423
C         50.12009        41.67648         1.50378
C         48.90200        42.34996         1.00511
C         50.16071        44.51234         1.18691
C         48.93753        43.79562         0.89576
C         50.16329        45.96062         1.12069
C         48.92704        46.65010         0.87666
C         50.13390        48.82165         0.85093
C         48.91922        48.08270         0.84073
C         50.11536        50.24985         0.72478
C         48.86548        50.89657         0.84588
C         50.31579        53.04253        -0.65259
C         48.96763        52.95557        -0.20240
C         51.21571        21.31668        -2.11504
C         52.53437        23.41148        -1.81388
C         51.32562        22.64819        -1.64464
C         52.57211        24.77184        -1.39543
C         51.40270        25.39438        -0.84042
C         52.62293        27.51803        -0.63481
C         51.44145        26.76410        -0.48165
C         52.66858        28.91089        -0.24604
C         51.42696        29.57961         0.13825
C         52.65302        31.73178         0.39046
C         51.42867        30.99696         0.34499
C         52.66436        33.10362         0.64897
C         51.41847        33.80311         0.84522
C         52.70539        35.87452         1.48620
C         51.41554        35.18611         1.11762
C         52.66914        37.36862         1.29963
C         51.42832        38.05141         1.37612
C         52.63955        40.20633         1.47897
C         51.42932        39.47169         1.44992
C         52.62156        41.66586         1.49476
C         51.41521        42.37664         1.41180
C         52.61453        44.52262         1.63827
C         51.36428        43.80318         1.37783
C         52.61139        46.04154         1.59240
C         51.35459        46.71326         1.23019
C         52.58377        48.87806         0.97264
C         51.37843        48.12921         0.99275
C         52.57047        50.26630         0.68699
C         51.33823        50.96839         0.46013
C         51.35902        52.23623        -0.21964
C         54.88220        23.53739        -2.45513
C         53.70746        22.82701        -2.35946
C         54.96170        24.89124        -2.03184
C         53.78371        25.51730        -1.52123
C         55.02303        27.62973        -1.22661
C         53.81376        26.89166        -1.12794
C         55.05199        29.01846        -0.85997
C         53.85472        29.63180        -0.34610
C         55.08656        31.84986        -0.16911
C         53.96047        30.98209         0.32597
C         55.10291        33.19707         0.12661
C         53.90769        33.86263         0.62106
C         55.13501        36.00131         0.77471
C         53.92905        35.22164         0.89901
C         55.14076        37.38441         1.04245
C         53.88401        38.09109         1.27611
C         55.15681        40.22411         1.70519
C         53.86996        39.50184         1.40263
C         55.11767        41.70025         1.39132
C         53.88515        42.38898         1.43421
C         55.08358        44.54273         1.32503
C         53.88266        43.80931         1.43485
C         55.05035        46.00390         1.19828
C         53.89246        46.72086         1.30063
C         55.12464        48.89490         0.83727
C         53.88953        48.23000         1.40514
C         55.03838        50.32032         0.66545
C         53.83666        50.96673         0.62360
C         57.40113        25.02687        -2.56790
C         56.19046        25.62897        -2.10982
C         57.42327        27.74338        -1.79240
C         56.21046        26.99785        -1.71034
C         57.43863        29.13270        -1.45219
C         56.23495        29.76379        -1.03091
C         57.51449        31.93467        -0.78705
C         56.18184        31.26840        -1.01677
C         57.53873        33.29925        -0.38762
C         56.32266        33.97446        -0.01477
C         57.58253        36.06510         0.31993
C         56.34563        35.33248         0.35031
C         57.59355        37.46134         0.62219
C         56.36799        38.14404         0.95133
C         57.60235        40.27816         1.11030
C         56.38845        39.52975         1.18629
C         57.60641        41.70805         1.25634
C         56.33418        42.42028         1.32637
C         57.58093        44.57735         1.43147
C         56.31181        43.83502         1.30484
C         57.56831        46.07794         1.19667
C         56.29065        46.67134         0.64970
C         57.56603        48.79668         0.35274
C         56.29999        48.18394         0.67544
C         58.57299        25.73929        -2.63671
C         59.80358        27.86966        -2.36313
C         58.61303        27.11463        -2.26126
C         59.82259        29.20941        -2.00459
C         58.66295        29.86482        -1.54138
C         59.93465        31.95889        -1.00458
C         58.70177        31.26096        -1.11651
C         59.97001        33.28535        -0.63518
C         58.78015        33.99568        -0.33269
C         60.01072        36.13348         0.02435
C         58.79652        35.39528         0.00746
C         60.02236        37.47530         0.31877
C         58.82024        38.17690         0.61268
C         60.04270        40.32914         0.89336
C         58.83056        39.59233         0.87078
C         60.04311        41.69254         1.07539
C         58.82986        42.41939         1.21864
C         60.02114        44.62234         1.15093
C         58.85966        43.87159         1.28944
C         60.00885        46.02177         0.91749
C         58.82428        46.73456         0.81267
C         58.74984        48.10324         0.38220
O         30.24646        36.89072         2.78944
O         49.96987        40.98025         2.79423
O         37.73307        19.26933         0.84877
O         48.57194        22.50495         0.69276
O         28.03047        28.13865        -1.07086
O         40.33005        45.48015         2.01319
O         38.40434        22.95849        -1.78136
O         34.60094        51.65096        -2.98671
O         38.42715        30.98742         2.44645
O         25.60663        35.62856         2.40795
O         30.86807        42.47523         1.27866
O         39.61374        35.37328        -0.68894
O         52.57500        45.33579         2.87973
O         41.00662        42.03859         2.20126
O         35.75529        37.59246        -0.65881
O         57.52607        45.56150         2.54315
O         38.61781        55.10764         0.54959
O         34.48258        23.25861        -1.51598
O         24.77156        39.64137        -1.19841
O         46.92916        42.97548        -1.11067
O         32.29217        24.66358         2.01286
O         45.24229        40.56748        -1.02393
O         27.04917        38.13860         2.39819
O         38.48803        33.63080         2.45657
O         33.11386        36.79771         2.81727
O         46.40891        52.24658         0.81126
O         28.25440        33.15714         2.80141
O         28.70825        35.56018         0.18723
O         35.53069        46.37832         1.12513
O         31.04503        30.93997         2.50549
O         28.71685        41.59069        -1.70921
O         34.00338        30.32427        -0.78918
O         27.34721        24.71952        -1.16937
O         28.76150        25.89421         1.87253
O         48.81108        52.28059         1.02918
O         28.55679        48.76715        -0.25931
O         44.53087        44.13400        -1.25993
O         35.14144        43.94978        -1.74420
O         38.31080        48.83435         1.32015
O         39.22563        51.66166        -2.00724
O         47.64375        35.80925         3.05892
H         48.42106        36.30829         3.38975
O         35.01625        19.96743         1.17364
H         35.85321        19.58019         1.52540
O         35.47847        23.95158         1.91686
H         35.25096        24.69875         2.50958
O         33.24740        45.54812        -2.88761
H         34.02550        44.93881        -2.94545
O         55.28488        40.16723         3.17872
H         54.50403        40.62347         3.55964
O         34.05230        20.82236        -2.24449
H         34.31345        21.71495        -2.57617
O         44.98349        53.16026        -3.53725
H         44.58651        52.31250        -3.23222
O         24.44683        35.45431        -1.08106
H         23.69646        35.09122        -1.59633
O         54.31205        30.66549         1.72768
H         53.54590        30.19667         2.12288
O         55.80617        31.62041        -2.41330
H         55.84700        32.59852        -2.48410
O         53.96423        48.48832         2.85229
H         53.34117        47.87486         3.29861
O         43.83297        18.25405        -3.09252
H         42.98772        17.81464        -3.32768
O         40.29910        24.24504         1.78874
H         40.38459        25.12921         2.20720
O         29.33323        38.88991        -1.17322
H         29.18374        39.64947        -1.78669
O         44.48968        50.42952        -2.05807
H         44.42667        49.44994        -2.09949
O         56.31347        46.31096        -0.77608
H         55.58627        46.79277        -1.22341
O         31.89472        39.08961         3.06234
H         32.03778        38.33454         3.67780
O         33.32922        48.25981        -3.38893
H         33.30384        47.27185        -3.48133
O         50.53035        27.05780         1.69249
H         50.50280        26.08187         1.79333
O         52.83432        35.67844         2.94961
H         52.08947        36.15436         3.37490
H         21.93339        26.83106         0.33579
H         21.93509        29.28785         0.46034
H         21.95250        31.18603         0.18455
H         21.98117        33.62276         0.19932
H         21.89267        35.51813         0.67605
H         21.94696        37.96294         0.73651
H         22.01583        39.98267         0.67957
H         22.09658        42.35247         0.19948
H         22.07974        44.04263        -0.74941
H         22.12123        46.39445        -1.46181
H         25.16240        23.37708         0.03753
H         23.08886        24.69502         0.22856
H         25.50068        49.65746        -2.23214
H         23.36113        48.42560        -2.04081
H         26.92635        22.30373         0.37031
H         27.26239        50.45584        -2.85623
H         29.05149        21.17633         0.71580
H         29.39719        51.62650        -2.92548
H         32.65341        19.13134        -0.55767
H         30.70359        20.26265         0.28038
H         32.81374        54.01951        -1.55202
H         30.82463        52.69519        -1.92183
H         34.42936        18.36402        -1.32680
H         34.27961        54.83035        -0.62780
H         36.52496        17.16717        -1.51236
H         36.22536        55.97398         0.41803
H         40.36002        14.89803        -1.23280
H         38.18863        16.07232        -1.01927
H         40.91196        58.51705        -1.37880
H         38.98092        57.57114        -0.09211
H         42.83628        14.93566        -1.01667
H         43.12806        58.16313        -2.44416
H         44.93463        16.17164        -1.27944
H         45.03948        56.67385        -2.98117
H         48.60671        18.41599        -1.64161
H         46.48811        17.21100        -1.80609
H         48.72923        54.75632        -2.31205
H         46.67929        55.29073        -3.50143
H         50.00644        19.57399        -2.42927
H         50.55621        53.81055        -1.40432
H         52.05311        20.85830        -2.65603
H         52.34392        52.53102        -0.61330
H         55.76589        23.03496        -2.86880
H         53.69888        21.78174        -2.69390
H         55.95876        50.90623         0.53376
H         53.83595        52.05920         0.51245
H         57.40842        23.97129        -2.86931
H         57.59421        49.86982         0.11681
H         59.49472        25.25668        -2.99229
H         60.71923        27.38517        -2.73120
H         60.76696        29.76138        -2.09885
H         60.88180        31.44700        -1.21834
H         60.94471        33.78637        -0.57581
H         60.96234        35.63802        -0.20655
H         60.98395        38.00375         0.31117
H         61.00544        39.81900         0.76312
H         61.00432        42.22200         1.08606
H         60.99730        44.12062         1.10677
H         60.96316        46.52516         0.70340
H         59.68767        48.62229         0.13388
