         224
 CSIRO Nanostructure Databank - Neutral Graphene Oxide Data Set
C        -11.07151         0.70870        -0.20725
C         -9.83833         1.45957         0.22803
C         -8.54576         0.81208        -0.20862
C         -7.37457         1.51904        -0.06812
C         -6.05254         0.86293        -0.20094
C         -4.92958         1.52044         0.50147
C         -3.77385         0.70045         0.86615
C         -2.45349         1.47583         1.13172
C         -1.24849         0.69256         0.63174
C          0.04085         1.46246         0.79168
C          1.29397         0.70398         0.52956
C          2.59698         1.38725         0.73628
C          3.85013         0.59468         0.91447
C          5.15004         1.34456         1.00355
C          6.31339         0.64909         0.36500
C          7.65741         1.26937         0.46670
C          8.76918         0.58466        -0.16161
C         10.03867         1.24063        -0.23660
C         11.27741         0.48375        -0.21870
C         -9.82968         2.91372        -0.13365
C         -8.64744         3.64989         0.01617
C         -7.38651         2.93936         0.25606
C         -6.20156         3.61731         0.54056
C         -4.96704         2.88440         0.73621
C         -3.74214         3.62490         1.16977
C         -2.45939         2.91352         1.07641
C         -1.23290         3.58801         0.55728
C          0.03905         2.82122         0.86675
C          1.29955         3.57273         1.12426
C          2.59462         2.82524         1.15344
C          3.87560         3.57630         0.88805
C          5.18867         2.85940         0.92094
C          6.40022         3.52373         0.34346
C          7.68740         2.84484         0.45643
C          8.89336         3.44931        -0.10587
C         10.05652         2.66541        -0.22987
C         -8.63100         5.04779        -0.15024
C         -7.49417         5.83755         0.29370
C         -6.21048         5.08930         0.72186
C         -4.94205         5.86223         0.67274
C         -3.71992         5.14226         1.12500
C         -2.37751         5.90281         1.17498
C         -1.15616         5.07300         0.79855
C          0.03000         5.72030         0.56928
C          1.36760         5.09126         0.92416
C          2.44416         5.48024        -0.08742
C          3.77162         4.76464        -0.01699
C          5.03327         5.42388        -0.47795
C          6.35846         4.81394        -0.15732
C          7.57523         5.49599        -0.52181
C          8.78817         4.82041        -0.50093
C         -7.35037         7.23534        -0.11131
C         -6.15832         7.90445         0.00918
C         -4.93553         7.20739         0.39247
C         -3.67030         8.03904         0.57461
C         -2.40185         7.22938         0.44288
C         -1.24560         7.78569        -0.01924
C          0.03537         7.09816         0.10346
C          1.18339         7.67638        -0.42043
C          2.37545         6.83927        -0.70462
C          3.63825         7.45429        -1.33109
C          4.94308         6.89641        -0.72944
C          6.21235         7.65682        -0.92600
C          7.56194         6.94638        -0.98867
C         -6.09866         9.32308        -0.31612
C         -4.92661         9.99221        -0.42507
C         -3.65751         9.30196        -0.26230
C         -2.52474         9.80439        -0.80659
C         -1.26962         8.99296        -0.93273
C          0.02355         9.76691        -0.91639
C          1.20302         9.07607        -0.82582
C          2.49570         9.68793        -1.10909
C          3.64005         8.97106        -1.29641
C          4.89788         9.61816        -1.65106
C          6.09520         8.99336        -1.56180
C        -11.05789        -0.61706        -0.46276
C         -9.81749        -1.37132        -0.56127
C         -8.56882        -0.58115        -0.68287
C         -7.25836        -1.34026        -0.79704
C         -5.97820        -0.62626        -0.47659
C         -4.83495        -1.42622         0.02302
C         -3.65730        -0.74594         0.51489
C         -2.49826        -1.44519         0.80691
C         -1.24203        -0.70639         1.28960
C          0.07778        -1.47756         1.05007
C          1.22717        -0.80271         0.31740
C          2.55473        -1.52263         0.50869
C          3.77960        -0.84781         0.52558
C          4.98319        -1.56095         0.29134
C          6.21210        -0.81036         0.01487
C          7.45547        -1.53900        -0.26401
C          8.54589        -0.73341        -0.63296
C         10.38042        -1.81659        -0.47506
C         11.43185        -0.88397        -0.13856
C         -9.78511        -2.73552        -0.64693
C         -8.55598        -3.50898        -0.75049
C         -7.28389        -2.81516        -0.71798
C         -6.08649        -3.49645        -0.52285
C         -4.87966        -2.81998        -0.07895
C         -3.70693        -3.60752         0.22203
C         -2.50642        -2.92228         0.76412
C         -1.20440        -3.70190         0.90082
C          0.09988        -2.96691         0.94873
C          1.32142        -3.67061         0.47142
C          2.54816        -2.95007         0.39417
C          3.77398        -3.66741         0.23581
C          5.00915        -2.95937         0.13086
C          6.25913        -3.66964        -0.06231
C          7.49805        -2.96711        -0.23520
C          8.75179        -3.70046        -0.18932
C         10.05203        -3.07027        -0.00086
C         -8.61033        -4.89394        -0.68847
C         -7.42234        -5.71160        -0.89178
C         -6.03883        -4.93473        -0.78111
C         -4.86299        -5.71234        -0.39697
C         -3.68610        -4.98308         0.01803
C         -2.39617        -5.69880        -0.05669
C         -1.14487        -5.08765         0.38453
C          0.04261        -5.79422         0.31897
C          1.31531        -5.07723         0.39611
C          2.53616        -5.78586         0.29128
C          3.76232        -5.09358         0.19745
C          5.00794        -5.80683         0.06145
C          6.23273        -5.09384        -0.05634
C          7.47240        -5.81864        -0.16561
C          8.69015        -5.10567        -0.14324
C         -7.37383        -7.14750        -0.62124
C         -6.17113        -7.82576        -0.52825
C         -4.92150        -7.10727        -0.39929
C         -3.71067        -7.87339        -0.04583
C         -2.40174        -7.20511        -0.24180
C         -1.16504        -7.95422        -0.01120
C          0.05031        -7.24289         0.11676
C          1.26541        -7.96153         0.15159
C          2.54221        -7.26962         0.53948
C          3.78751        -7.95562         0.04934
C          4.99536        -7.23750        -0.03441
C          6.23782        -7.94255        -0.24571
C          7.44058        -7.23741        -0.26823
C         -6.13793        -9.28714        -0.52637
C         -5.00719       -10.02293        -0.40121
C         -3.71001        -9.40136        -0.06897
C         -2.42816       -10.06546        -0.28338
C         -1.19518        -9.38639        -0.12256
C          0.05297       -10.06808        -0.17693
C          1.27424        -9.37439        -0.04331
C          2.53375       -10.05933        -0.13253
C          3.75640        -9.36954        -0.13888
C          5.00763       -10.05469        -0.35965
C          6.19145        -9.37476        -0.39375
O         -1.43790         0.51467        -0.79330
H         -1.42114         1.41109        -1.20636
O          5.98914         0.27497        -1.01010
O         -2.05940        -3.52339         2.06573
O         -3.26851         0.94084         2.21157
O         -6.62271        -5.32139        -2.04887
O         -7.14860         5.57610         1.71834
O          3.65999         7.07940        -2.72754
H          3.28452         6.16740        -2.77685
O         -2.17461         6.24364         2.58525
H         -2.58500         5.50982         3.10706
O         -3.69232         8.49591         1.96371
H         -3.26298         7.79211         2.51175
O          8.04911         7.01558        -2.33934
H          7.45120         6.49674        -2.91609
O          1.75447         5.70489         2.17159
H          1.89930         4.98539         2.83197
O         -9.84056         1.39313         1.70881
H        -10.51517         2.02652         2.03343
O         -1.31839        -0.50480         2.70629
H         -1.07634        -1.35958         3.13248
O         -5.62791         0.35335        -1.51641
O          0.89887        -1.00748        -1.08467
H          1.40799        -0.34297        -1.60235
O          9.50988        -1.30216        -1.46645
O          4.28579         4.54098        -1.37789
O         -1.33703         3.47909        -0.94013
H         -0.57724         3.96663        -1.33044
O          7.89738         2.03273         1.65741
O          2.59672        -7.40201         2.02169
H          3.42981        -6.97657         2.31852
O          5.53352         7.62407         0.38742
O         -3.77309        -8.61370         1.20194
O         -2.30244        -6.33232        -1.40388
O          2.04900         1.28808        -0.62085
O          1.94329         5.61085        -1.44578
O         -1.33991         8.42580        -2.29906
H         -0.50037         7.94277        -2.45884
O          1.92364         3.14847         2.39944
O          4.71395         3.64139         2.07469
O         -7.91270        -0.80345        -1.98412
O         -3.95750         4.44756         2.40241
O          0.42630        -2.26592         2.21705
O          4.55496         0.78454         2.19651
H         12.41268        -1.28034         0.16794
H         12.18138         1.09129        -0.04741
H         11.00477         3.16908        -0.47388
H          9.69433         5.34526        -0.83847
H          8.29349         7.52519        -0.36589
H          7.01809         9.49793        -1.88148
H          4.84985        10.65553        -2.01669
H          2.52852        10.78537        -1.19412
H          0.02192        10.82675        -1.21269
H         -2.57041        10.74824        -1.37378
H         -4.91455        11.04718        -0.73808
H         -7.05121         9.83810        -0.50964
H         -8.23028         7.75266        -0.52330
H         -9.51472         5.56007        -0.55927
H        -10.77847         3.43690        -0.32831
H        -12.03219         1.24550        -0.16253
H        -12.00073        -1.15647        -0.64372
H        -10.73039        -3.29822        -0.60315
H         -9.56882        -5.39319        -0.48136
H         -8.32103        -7.69895        -0.52051
H         -7.09027        -9.80154        -0.72577
H         -5.04642       -11.11628        -0.51955
H         -2.42351       -11.12667        -0.57289
H          0.06366       -11.15959        -0.31184
H          2.53118       -11.14980        -0.27858
H          4.99170       -11.14662        -0.49095
H          7.13653        -9.91565        -0.54943
H          8.38827        -7.78429        -0.38571
H          9.63132        -5.67572        -0.12718
H         10.78853        -3.62655         0.59950
