         720
 CSIRO Nanostructure Databank - Neutral Graphene Oxide Data Set
C         22.96793        27.21089        -1.57239
C         22.96756        28.57457        -1.61413
C         23.03624        31.60028        -1.49134
C         23.06538        32.90045        -1.13900
C         23.20552        35.76931        -0.46828
C         23.20604        37.19113        -0.24467
C         23.17453        40.06816         0.34160
C         23.14032        41.45817         0.20566
C         22.99751        44.31705        -0.48185
C         22.93568        45.69582        -0.62386
C         25.49935        24.37703        -1.03844
C         24.28938        24.98363        -1.24553
C         25.48036        27.19665        -1.14969
C         24.15606        26.43778        -1.14272
C         25.42943        28.59894        -1.63210
C         24.17282        29.37118        -1.47018
C         25.48546        31.47558        -1.21615
C         24.22246        30.76219        -1.39177
C         25.54831        32.81838        -0.86283
C         24.25347        33.47743        -0.40655
C         25.62247        35.58798         0.12312
C         24.31903        34.99492        -0.37608
C         25.61794        37.12749         0.18248
C         24.33933        37.87753         0.10285
C         25.56352        40.06691        -0.11811
C         24.35642        39.34089         0.14061
C         25.53366        41.49489        -0.23288
C         24.29003        42.19272        -0.12428
C         25.43935        44.33130        -0.61482
C         24.24799        43.62423        -0.40572
C         25.39333        45.76553        -1.11139
C         24.10287        46.46427        -0.77827
C         25.26190        48.58580        -0.54305
C         24.08567        47.87321        -0.65860
C         27.97612        23.15442         0.24657
C         28.06871        24.36039        -0.67095
C         26.74189        25.09686        -0.90743
C         27.98530        27.23605        -1.29152
C         26.75716        26.46578        -1.14108
C         27.99499        28.56955        -1.56909
C         26.72961        29.30737        -1.77611
C         28.06151        31.43498        -1.29682
C         26.73744        30.71357        -1.31090
C         28.00203        32.88721        -1.17672
C         26.82071        33.52694        -0.82519
C         27.98595        35.70516        -0.78840
C         26.85149        34.98074        -0.55922
C         27.91981        37.21015        -0.96870
C         26.84522        37.90390        -0.17503
C         27.97840        40.07432        -0.58487
C         26.78581        39.37788        -0.34877
C         27.97022        41.50656        -0.57926
C         26.74621        42.21237        -0.44854
C         27.90094        44.38288        -0.68221
C         26.71360        43.66363        -0.56096
C         27.94323        45.87263        -0.96835
C         26.61872        46.56744        -0.74947
C         27.72343        48.72777        -0.06201
C         26.53795        47.92236        -0.54512
C         28.06372        50.01035        -0.80002
C         30.33958        23.40506         0.96659
C         29.04983        22.66357         0.88451
C         30.34562        24.83689         0.51807
C         29.05818        25.41435        -0.05722
C         30.46168        27.41598        -0.75409
C         29.30061        26.51217        -1.12717
C         30.49218        28.70828        -1.22765
C         29.28525        29.26459        -1.95337
C         30.44925        31.47533        -2.05483
C         29.26677        30.77115        -1.81913
C         30.49606        32.90316        -1.81321
C         29.34166        33.55698        -1.04391
C         30.53121        35.77797        -0.94156
C         29.23164        35.05260        -1.37183
C         30.42575        37.24105        -1.34754
C         29.22914        37.97140        -0.90883
C         30.46800        40.10990        -0.93028
C         29.22600        39.35447        -0.83019
C         30.44098        41.54461        -0.76550
C         29.20916        42.21519        -0.69709
C         30.48529        44.42815        -0.31156
C         29.18464        43.67737        -0.75187
C         30.23607        45.81634         0.19352
C         29.07778        46.54324        -0.20913
C         30.08391        48.61477         0.63112
C         28.98674        47.91032         0.08298
C         30.14090        50.09516         0.52440
C         29.18355        50.67532        -0.46416
C         32.80089        20.75958         1.93336
C         31.70636        21.33669         1.34118
C         32.81615        23.53951         1.35188
C         31.63979        22.73891         1.15855
C         32.84576        24.90733         0.81141
C         31.64719        25.49652         0.24494
C         32.98121        27.35726        -0.72049
C         31.66678        26.76571        -0.30862
C         32.96826        28.82537        -1.08848
C         31.73143        29.43238        -1.41176
C         32.89472        30.94390        -2.82569
C         31.67121        30.64372        -2.17271
C         32.62685        33.47802        -3.12420
C         31.63748        33.74099        -2.02290
C         32.87073        35.91090        -2.01378
C         31.70659        35.08150        -1.61536
C         32.96313        37.30219        -1.52469
C         31.71682        38.03558        -1.49838
C         32.92579        40.18720        -1.20491
C         31.68282        39.46356        -1.17391
C         32.91053        41.58028        -0.91070
C         31.68259        42.27130        -0.63610
C         32.99899        44.16353         0.19930
C         31.71333        43.60655        -0.14800
C         33.12259        45.33748         0.99640
C         31.11162        46.47369         1.06882
C         32.30774        48.58414         1.69932
C         31.12594        47.88323         1.22566
C         32.54631        49.90042         1.44290
C         31.45783        50.76758         0.91052
C         33.02501        52.67672         0.78670
C         31.87565        52.10215         0.39060
C         35.38513        19.46322         2.66815
C         35.17627        20.89606         2.98668
C         33.88121        21.59220         2.45112
C         35.01571        23.91367         2.53163
C         33.93085        22.98871         2.00469
C         35.15444        25.19901         1.69323
C         34.02762        25.64382         0.83076
C         35.30700        27.62345         0.04092
C         34.13474        26.92137         0.14905
C         35.32985        29.09701        -0.36341
C         34.18464        29.53041        -1.29808
C         35.23532        31.61696        -2.39006
C         34.12835        30.66985        -2.15072
C         35.26989        33.00076        -2.32563
C         34.15652        33.80565        -3.03318
C         35.39588        35.96458        -2.43477
C         34.10514        35.28039        -2.65085
C         35.25726        37.48350        -2.47526
C         34.27679        38.03093        -1.42218
C         35.29201        40.32574        -1.82678
C         34.14374        39.54342        -1.54726
C         35.30357        41.69076        -1.46878
C         34.14114        42.29234        -0.93359
C         35.47321        44.22539        -0.15732
C         34.19945        43.58871        -0.32258
C         35.54985        45.44343         0.66239
C         34.29650        46.08698         1.06984
C         35.43376        48.27309         1.26812
C         34.36303        47.41050         1.57672
C         35.23597        49.75391         1.15851
C         33.93077        50.48698         1.35555
C         35.26044        52.59085         2.07340
C         33.90741        51.96322         1.80656
C         35.38642        53.56214         3.08156
C         37.69723        19.54622         3.59263
C         36.56397        18.84482         2.86728
C         37.70982        20.97517         3.11343
C         36.43817        21.71781         3.13759
C         37.71771        23.84763         2.43969
C         36.39718        23.20445         2.83396
C         37.74457        25.15416         1.75771
C         36.47728        25.85066         1.44032
C         37.77650        27.75851         0.64223
C         36.59085        26.88262         0.33305
C         37.78193        29.12643         0.22463
C         36.75526        29.60990        -0.57210
C         37.92467        31.79422        -0.91256
C         37.03038        30.82863        -1.28594
C         37.91688        33.14793        -1.54063
C         36.61911        33.75472        -2.20390
C         37.68053        36.13309        -1.62595
C         36.54792        35.26892        -2.19929
C         37.88480        37.44633        -2.42235
C         36.59617        38.19935        -2.52614
C         37.83149        40.39392        -2.05296
C         36.54484        39.69320        -2.34946
C         37.82079        41.77720        -1.44730
C         36.52180        42.55910        -1.72502
C         37.88011        44.43839        -0.72113
C         36.61533        43.78103        -0.83140
C         38.10016        45.61666         0.21344
C         36.81771        46.24371         0.74400
C         37.82608        48.51432         0.63419
C         36.67743        47.71363         0.84902
C         37.80069        49.89574         0.99489
C         36.50296        50.58397         1.08475
C         37.80329        52.65738         1.88801
C         36.50669        52.06759         1.49858
C         37.75439        54.08093         2.38432
C         36.56341        54.25770         3.28840
C         40.20416        16.70092         3.82570
C         39.05182        17.45361         3.92314
C         40.18269        19.38792         2.98856
C         39.01320        18.79777         3.46719
C         40.13163        20.71669         2.32732
C         38.86415        21.52460         2.41242
C         40.14465        23.53320         1.43316
C         38.96305        23.00943         2.25550
C         40.22344        25.05043         1.49007
C         38.94719        25.75436         1.43391
C         40.20261        27.91148         1.02395
C         38.93597        27.15004         1.05243
C         40.12977        29.39572         1.32894
C         38.88280        30.01506         0.66245
C         40.15905        32.19588         0.22978
C         38.86910        31.44123         0.17029
C         40.20927        33.48548        -0.49829
C         39.05167        34.01188        -1.06307
C         40.32530        36.22891        -1.20902
C         38.99285        35.46418        -1.21521
C         40.40778        37.55034        -1.83493
C         39.21625        38.24405        -2.45239
C         40.32792        40.44015        -1.91780
C         39.07679        39.60152        -1.70552
C         40.33131        41.80949        -1.85119
C         39.03232        42.57779        -1.96751
C         40.29724        44.62493        -1.21288
C         39.06047        43.91547        -1.27617
C         40.25025        46.03549        -0.87869
C         39.10497        46.59641        -0.33722
C         40.20092        48.76998         0.05512
C         39.04808        47.96898         0.09223
C         40.23787        49.99834         0.78866
C         38.99402        50.60143         1.17934
C         40.25342        52.43602         2.23259
C         39.00428        51.94675         1.73045
C         40.31663        53.83420         2.80290
C         39.00581        54.50836         3.09154
C         40.20964        56.20534         4.37118
C         39.07308        55.76340         3.72392
C         42.62104        16.54510         3.24181
C         41.41298        17.28616         3.35743
C         42.65958        19.29659         2.65932
C         41.41999        18.66438         2.99684
C         42.66673        20.80545         2.66204
C         41.45433        21.36537         1.90056
C         42.70409        23.48460         1.30068
C         41.44449        22.92729         2.00506
C         42.72509        25.01661         1.28207
C         41.41759        25.71021         1.38978
C         42.67074        27.97431         1.71812
C         41.48285        27.18129         1.19027
C         42.64528        29.37297         1.11915
C         41.45434        30.03944         0.93575
C         42.70947        32.13226         0.26495
C         41.43635        31.47418         0.58979
C         42.70627        33.48547        -0.12498
C         41.48003        34.19675        -0.49592
C         42.90146        36.21319        -1.12569
C         41.57093        35.49808        -0.95701
C         42.78388        37.71672        -1.21813
C         41.60960        38.26572        -1.76485
C         42.85166        40.49718        -2.22533
C         41.57214        39.69910        -2.17143
C         42.80034        41.95391        -2.02743
C         41.56278        42.58632        -1.86908
C         42.77129        44.71350        -1.56338
C         41.52603        43.99722        -1.57871
C         42.75506        46.13136        -1.11073
C         41.44391        46.85537        -1.12039
C         42.69282        48.96240        -0.27985
C         41.42585        48.28566        -0.59622
C         42.68368        50.10642         0.48604
C         41.47062        50.60700         1.11573
C         42.61697        52.02271         2.87920
C         41.45541        51.68695         2.09442
C         42.53748        53.15285         3.84098
C         41.29313        53.95801         3.95928
C         42.69079        55.89106         4.77396
C         41.31171        55.26410         4.76888
C         43.78403        17.15713         2.82340
C         45.11985        19.21827         2.12505
C         43.83453        18.55841         2.58778
C         45.14554        20.73291         2.26176
C         43.95000        21.46950         2.19570
C         45.19600        23.56165         1.83609
C         43.96401        22.84478         1.86460
C         45.24652        25.00516         1.73571
C         44.01173        25.78308         1.47180
C         45.19398        27.98814         1.66684
C         44.02362        27.27305         1.61920
C         45.12564        29.45813         1.42294
C         43.91488        30.05572         0.97352
C         45.11626        32.19258         0.62429
C         43.91499        31.43049         0.57307
C         44.95520        33.58757         0.68260
C         43.89699        34.24989         0.07141
C         45.30906        36.47872        -0.13184
C         43.96318        35.70782        -0.14648
C         45.31602        37.89110        -0.68209
C         44.00194        38.53607        -1.12973
C         45.28178        40.55742        -1.84359
C         44.09579        39.83135        -1.82361
C         45.25865        41.96185        -2.16157
C         44.03864        42.67782        -2.03556
C         45.21604        44.96889        -2.12647
C         43.99151        44.10102        -1.84426
C         45.30843        46.23977        -1.31470
C         44.01832        46.90418        -0.95396
C         45.20647        48.86810        -0.10070
C         43.98557        48.43611        -0.89228
C         45.20245        49.99798         0.68452
C         43.98135        50.85850         0.56496
C         45.07476        51.79035         3.21783
C         43.78670        51.21417         2.97742
C         45.09951        52.98274         4.09680
C         43.80529        53.69122         4.44429
C         43.81032        55.15203         4.73488
C         47.55696        19.25276         2.56165
C         46.38123        18.59866         2.66696
C         47.62903        20.65573         2.18997
C         46.38790        21.41617         2.18025
C         47.66862        23.54841         2.06653
C         46.39622        22.82710         2.06083
C         47.67773        24.98175         1.75591
C         46.47230        25.70879         1.75522
C         47.71483        27.79438         1.17786
C         46.52492        27.23401         1.94996
C         48.00866        29.11524         1.26640
C         46.25855        30.32558         1.47389
C         47.69233        32.22404         0.52074
C         46.39786        31.60522         0.89902
C         47.84214        33.57466         0.19101
C         46.83080        34.57816         0.46637
C         47.62825        36.23583        -1.15512
C         46.61700        35.78137        -0.16723
C         47.69704        37.69225        -1.45055
C         46.54235        38.47952        -1.23515
C         47.76494        40.48019        -1.88205
C         46.54351        39.85400        -1.61933
C         47.83510        41.87829        -2.44590
C         46.53080        42.68006        -2.39189
C         47.81177        44.82104        -1.72663
C         46.54735        44.18398        -2.20583
C         47.78148        46.13567        -1.29104
C         46.51013        46.85954        -1.10512
C         47.72503        48.83947         0.06347
C         46.47894        48.23597        -0.51949
C         47.57947        49.75386         1.22604
C         46.34861        50.37746         1.51229
C         47.54906        51.82002         3.12043
C         46.29261        51.29754         2.63535
C         47.53352        53.04437         3.89379
C         46.39131        53.64768         4.29014
C         50.03271        20.52401         1.55272
C         48.84300        21.26258         1.86390
C         50.14272        23.37337         1.28405
C         48.95704        22.73091         1.89308
C         50.14656        24.74572         1.04482
C         48.98158        25.58244         1.42810
C         50.01854        27.53286        -0.00028
C         48.95167        26.99172         0.94564
C         50.10863        29.03614         0.10071
C         48.81868        29.81614         0.20703
C         50.03552        31.82765        -0.57786
C         48.98745        31.35659         0.45796
C         49.97311        33.22075        -1.21438
C         49.11678        34.18770        -0.38402
C         50.07133        35.98894        -1.96816
C         48.85143        35.38645        -1.30210
C         50.08281        37.48759        -2.22066
C         48.90720        38.30592        -1.81549
C         50.22830        40.42482        -1.99593
C         48.97326        39.73072        -1.90144
C         50.25072        41.86666        -1.89813
C         49.04377        42.63370        -1.93022
C         50.30598        44.65076        -1.37472
C         49.05126        44.02417        -1.70061
C         50.31781        45.99354        -0.82351
C         49.05653        46.78859        -0.89816
C         50.13219        48.38012         0.74619
C         49.02854        48.13138        -0.19187
C         49.85979        49.11374         1.86559
C         48.71662        49.97830         2.03993
C         50.04518        51.77753         3.23284
C         48.78212        51.15001         2.85699
C         51.19303        21.14229         1.17450
C         52.49276        23.20657         0.59801
C         51.29463        22.57251         1.00362
C         52.51468        24.62188         0.37021
C         51.32121        25.39464         0.54095
C         52.53577        27.41788        -0.08585
C         51.33037        26.78931         0.21387
C         52.50642        28.86472        -0.53076
C         51.43912        29.72900         0.17327
C         52.55455        31.76963        -1.01247
C         51.32403        31.06670        -0.59377
C         52.57301        33.10980        -1.42771
C         51.32995        33.88582        -1.51744
C         52.57607        35.87363        -2.42587
C         51.33668        35.19522        -1.93167
C         52.61806        37.38223        -2.57923
C         51.34001        38.26001        -2.64512
C         52.67576        40.30413        -2.13656
C         51.44966        39.66930        -2.08404
C         52.73048        41.78817        -2.11221
C         51.49263        42.55110        -1.84802
C         52.80675        44.68246        -1.50912
C         51.52252        43.93250        -1.56800
C         52.77281        46.01341        -0.77896
C         51.47849        46.55650        -0.31547
C         52.69435        48.23682         1.23838
C         51.51525        47.96385         0.27921
C         52.80368        49.60037         1.87806
C         51.72634        50.06953         2.60556
C         51.34665        51.38653         3.03186
C         54.86589        23.02275        -0.00744
C         53.72136        22.45403         0.43313
C         54.92031        24.44805        -0.36967
C         53.72070        25.27138        -0.03848
C         55.02642        27.36885        -0.40728
C         53.73867        26.66282        -0.19329
C         55.04789        28.78070        -0.77173
C         53.85432        29.56907        -0.50555
C         55.01839        31.63252        -1.50232
C         53.82288        31.04397        -0.84425
C         55.05697        33.11051        -1.54430
C         53.82103        33.78100        -1.64953
C         55.13196        35.90765        -2.07165
C         53.89293        35.08833        -2.39642
C         55.12146        37.34561        -2.18169
C         53.93005        38.06167        -2.39088
C         55.23914        40.24373        -2.10159
C         53.92897        39.54138        -2.41037
C         55.15019        41.58532        -1.39323
C         54.06087        42.48691        -1.96972
C         55.27327        44.36672        -0.75834
C         54.17644        43.99429        -1.73984
C         55.30930        45.74711        -0.24795
C         54.05399        46.56926        -0.21932
C         55.28036        48.29065         1.16078
C         53.98948        47.59685         0.87455
C         55.22043        49.69314         1.47112
C         54.04013        50.32050         1.77521
C         57.56479        24.43647        -0.53011
C         56.24983        25.11398        -0.65529
C         57.54428        27.29161        -0.96540
C         56.30326        26.60543        -0.50953
C         57.52882        28.65295        -1.30276
C         56.19008        29.27916        -1.62357
C         57.53434        31.50221        -1.75296
C         56.23012        30.80323        -1.77452
C         57.52821        32.96770        -1.57436
C         56.28634        33.76445        -1.72045
C         57.61279        35.87468        -1.90919
C         56.33006        35.19131        -1.88459
C         57.62763        37.29986        -1.93870
C         56.39783        38.04232        -2.00132
C         57.67738        40.13039        -1.62826
C         56.45026        39.43690        -1.86912
C         57.68414        41.54295        -1.31879
C         56.47572        42.26759        -1.20678
C         57.71089        44.21932        -0.29741
C         56.45843        43.60981        -0.73059
C         57.71569        45.49008         0.31467
C         56.39947        46.08976         0.75559
C         57.74923        48.16379         1.32511
C         56.46626        47.57865         1.04443
C         58.71947        25.13551        -0.62902
C         59.95541        27.24980        -1.17325
C         58.75329        26.56644        -0.90947
C         59.94685        28.61132        -1.46093
C         58.73956        29.33937        -1.55502
C         59.95724        31.51607        -2.02040
C         58.72761        30.79697        -1.76184
C         60.00659        32.87134        -2.11059
C         58.86221        33.69435        -1.70776
C         60.05033        35.86476        -2.01435
C         58.83352        35.16305        -1.92320
C         60.07396        37.24728        -1.98944
C         58.87510        37.99061        -1.90141
C         60.12138        40.13421        -1.57497
C         58.90074        39.42124        -1.71278
C         60.13246        41.47646        -1.25588
C         58.93089        42.20117        -1.06796
C         60.15458        44.22072        -0.23839
C         58.94252        43.55345        -0.55624
C         60.15175        45.48733         0.31225
C         58.93015        46.13866         0.61065
C         58.91647        47.47315         1.16154
O         50.29990        30.87472        -1.66090
O         47.36510        29.90223         2.21527
O         36.44986        30.95294        -2.53760
O         33.29253        47.84157         2.35661
O         24.73144        27.01340         0.08687
O         36.39121        45.43913         1.90343
O         47.76138        35.26035        -2.25193
O         52.76222        45.93880        -2.24751
O         32.04312        45.73178         1.78834
O         53.19500        47.12115         2.02858
O         42.21221        39.99485        -3.45611
O         36.41338        51.64623         0.09652
O         44.41581        36.43131         1.01696
O         32.13197        33.46750        -4.24913
O         47.21564        49.31291        -1.21909
O         41.03469        27.59626        -0.14971
O         52.49829        36.48745        -3.75582
O         36.38794        22.73925         4.20282
O         30.21133        24.53172         1.94701
O         45.90126        34.25881         1.46251
O         41.29151        47.95903        -2.04346
O         37.73583        33.23892        -2.99094
O         29.76008        26.02297        -2.37331
O         26.58885        37.54604         1.21848
O         55.31523        31.17137        -2.88387
O         43.40867        46.27744         0.22616
O         44.40326        52.79926         5.42497
O         38.74275        23.72634         3.48872
O         39.19231        20.72977         1.18815
O         41.44631        52.80783         4.83023
O         30.27066        50.82142         1.79689
O         46.58260        43.59869        -3.55484
O         55.06291        46.81536        -1.23616
O         54.06689        30.60594         0.53940
O         44.05608        52.07022         0.42282
O         44.59055        38.76358         0.22702
O         49.73769        36.52502        -3.27955
O         58.31949        33.35689        -0.38552
O         38.31100        31.11687         1.47835
O         49.44453        26.71108         2.30471
O         40.67428        32.28951         1.59209
O         37.24580        37.61679        -3.71944
O         37.30717        40.38684        -3.40709
O         33.13351        35.94262        -3.49394
O         55.40969        24.66401        -1.76391
O         34.13797        21.25517         3.89916
O         30.85428        37.60366        -2.67105
O         35.66079        26.29015         2.56684
O         43.47961        25.47667         0.09775
O         53.54460        42.25068        -3.27881
O         55.92992        27.08590         0.82470
O         54.77246        40.13911        -3.46674
O         39.46774        36.16554         0.00719
O         48.57457        23.26317         3.20709
O         27.53603        30.76473        -0.06850
O         30.09102        44.29642        -1.73169
O         50.77143        49.08663         2.92087
O         34.40378        50.18669         0.00282
O         25.99946        28.90112        -2.97236
O         49.34723        48.06298        -1.61007
O         29.66914        33.41460         0.38112
H         29.42435        32.50370         0.65602
O         41.46964        23.37639         3.36385
H         42.07681        22.80278         3.89471
O         33.20560        51.99462         3.07369
H         32.25495        51.80815         2.91819
O         25.42669        45.65661        -2.59069
H         26.38002        45.66964        -2.85748
O         45.15165        18.97471         0.67508
H         45.96500        19.39323         0.32185
O         52.10486        28.81303        -1.93529
H         52.78456        28.30793        -2.43118
O         49.90531        34.67832         0.72819
H         49.97222        33.96201         1.39701
O         34.96101        29.81583         0.87144
H         35.58498        29.55176         1.58232
O         34.82106        37.78665        -0.09734
H         34.17804        38.10839         0.56825
O         39.55870        38.52532        -3.81279
H         38.71781        38.70087        -4.29773
O         55.86366        28.72160        -2.94757
H         55.40811        29.44456        -3.44687
O         27.48082        37.38139        -2.35743
H         28.06206        36.80186        -2.91178
O         34.61591        33.78659        -4.39909
H         33.80715        33.78887        -4.96832
O         37.89522        41.69168        -0.01283
H         38.43929        40.90736         0.24056
O         51.81583        48.85090        -0.83656
H         51.10495        48.71912        -1.51323
O         27.33218        49.13104         1.28773
H         28.04805        49.68702         1.66495
O         49.60784        31.54528         1.76491
H         48.95155        31.24161         2.43660
O         38.80624        45.05424         1.36643
H         38.11147        44.67759         1.95749
O         33.26996        26.66479        -2.00087
H         32.41519        26.56730        -2.47865
O         46.77300        27.41811         3.36690
H         47.70299        27.13811         3.53335
O         28.37241        26.06126         1.02397
H         28.69510        25.66052         1.86511
O         56.01532        45.41107         1.99027
H         56.65455        45.66839         2.68707
O         40.91411        54.66641         1.74292
H         40.23931        54.77409         1.03700
O         43.72380        49.86663         2.81542
H         42.78987        49.57330         2.78234
O         32.99206        31.26771        -4.12798
H         32.10867        31.43170        -4.52070
O         24.06676        33.07901         0.98969
H         24.73071        33.57883         1.52298
O         42.58789        21.14895         4.08770
H         41.92380        20.56444         4.51318
O         54.13931        34.63071        -3.77263
H         53.78577        35.33739        -4.36529
O         29.11151        35.20574        -2.80946
H         30.00016        35.11898        -3.22146
O         51.82192        29.91144         1.54436
H         51.15888        30.51104         1.96353
O         44.94998        45.49291        -3.46289
H         45.32535        44.84436        -4.10469
O         25.74167        35.13974         1.51182
H         26.33175        35.79103         1.96122
O         54.70225        44.50791        -2.98900
H         54.50800        45.47649        -2.99909
O         37.60919        54.95800         1.19294
H         36.89500        54.57780         0.63770
O         34.50449        24.33312         3.81072
H         35.02762        25.11818         4.08943
O         36.90926        26.12031        -0.87001
H         36.93821        26.73721        -1.63112
O         29.51256        28.92528        -3.35951
H         29.57409        27.93799        -3.39025
O         39.97337        29.54503         2.75034
H         39.68113        30.47341         2.90441
O         41.03060        54.93927         6.16027
H         41.26179        53.98385         6.26971
O         37.07244        36.57630        -0.38038
H         37.79384        36.76830         0.26462
O         28.56141        23.83224        -1.90758
H         28.98664        24.59015        -2.41704
O         38.95187        39.28148        -0.28846
H         39.64536        38.62340        -0.05137
O         54.64952        41.28538        -0.03658
H         55.41369        41.04632         0.53018
O         30.68980        35.81876         0.48807
H         30.51234        34.91097         0.83791
O         49.58456        27.19633        -1.35685
H         50.18488        27.68241        -1.96812
O         41.66877        20.94722         0.54811
H         40.81039        21.04327         0.07425
O         37.37582        19.53583         5.01756
H         36.65510        20.18350         5.17379
O         36.41366        43.00947        -3.08634
H         36.68830        42.26111        -3.66801
O         34.64608        37.86510        -3.72583
H         35.23431        37.55876        -4.44976
O         43.45643        35.78582        -2.42434
H         42.85548        36.10405        -3.13229
O         38.88463        42.78056        -3.39640
H         39.70301        43.20456        -3.72942
O         51.14625        38.56389        -4.04679
H         50.93063        37.71195        -4.49209
O         44.12481        48.91031        -2.24460
H         44.26809        49.87925        -2.22968
O         42.65180        23.10319        -0.09944
H         43.22155        23.75002        -0.58197
O         39.94958        23.14104         0.06644
H         40.82858        23.21366        -0.38659
O         49.28919        33.06408        -2.46750
H         49.70863        32.30986        -2.93802
O         48.12170        41.63838        -3.85572
H         47.92694        42.47555        -4.33614
O         28.20406        46.02864        -2.40548
H         29.01465        45.49031        -2.59584
O         42.42931        28.09775         3.14767
H         43.11582        28.68252         3.53149
O         48.03005        29.65853        -1.00272
H         48.62799        29.85968        -1.75989
H         22.03560        26.66157        -1.77413
H         22.01916        29.09540        -1.81645
H         22.11933        31.16779        -1.91884
H         22.15459        33.50415        -1.25594
H         22.24067        35.32266        -0.74510
H         22.26136        37.72911        -0.40427
H         22.24421        39.54052         0.59329
H         22.17885        41.96846         0.35078
H         22.05964        43.76047        -0.35555
H         21.96400        46.20614        -0.54498
H         25.54568        23.27800        -1.06963
H         23.40602        24.38195        -1.50653
H         25.23613        49.67194        -0.37973
H         23.11872        48.38896        -0.56015
H         27.02838        22.59521         0.28700
H         27.35998        50.43049        -1.53423
H         28.95701        21.74370         1.48330
H         29.41786        51.64837        -0.92144
H         32.77761        19.69069         2.18137
H         30.84072        20.71456         1.07491
H         33.31619        53.66707         0.40708
H         31.20247        52.62862        -0.30272
H         34.55803        18.89562         2.21929
H         34.50550        53.79823         3.69596
H         36.69336        17.79952         2.54498
H         36.62472        54.97146         4.12233
H         40.20372        15.64434         4.12979
H         38.13459        17.00444         4.32835
H         40.23322        57.21933         4.79710
H         38.20282        56.43520         3.66452
H         42.61539        15.47134         3.47804
H         42.75993        56.97123         4.97496
H         44.69258        16.55078         2.70702
H         44.78280        55.64556         4.87914
H         48.48823        18.74741         2.85668
H         46.37237        17.55635         3.01527
H         48.47892        53.53483         4.15433
H         46.43738        54.57699         4.87274
H         50.00507        19.42640         1.60318
H         49.95671        52.80891         3.60036
H         52.06365        20.51332         0.94805
H         52.13519        52.13893         3.18705
H         55.76540        22.40820        -0.15024
H         53.72612        21.38284         0.67415
H         56.15115        50.27512         1.50837
H         54.05371        51.37721         2.08146
H         57.59349        23.34598        -0.39262
H         57.79340        49.20208         1.68236
H         59.68272        24.60941        -0.54960
H         60.90976        26.70527        -1.13601
H         60.90787        29.11522        -1.62913
H         60.85814        30.94034        -2.27273
H         60.91827        33.35743        -2.48534
H         61.00004        35.31433        -2.04492
H         61.04550        37.75651        -2.00914
H         61.08169        39.61595        -1.69006
H         61.10221        41.97297        -1.12304
H         61.11961        43.73716        -0.43787
H         61.10091        45.99570         0.53364
H         59.87819        47.95297         1.39255
