         280
 CSIRO Nanostructure Databank - Neutral Graphene Oxide Data Set
C        -10.72650         0.78049         1.14087
C         -9.76486         1.52420         0.29658
C         -8.61268         0.77503        -0.30634
C         -7.24477         1.42709        -0.16332
C         -6.11383         0.75471        -0.94799
C         -4.80388         1.46734        -0.91728
C         -3.52585         0.70564        -0.97663
C         -2.34810         1.40873        -0.82537
C         -1.05611         0.71848        -1.01872
C          0.24443         1.42455        -0.68949
C          1.45597         0.59687        -0.18835
C          2.36618         1.31869         0.80756
C          3.69297         0.59515         1.20004
C          4.95316         1.37714         0.76857
C          6.05500         0.67107         0.03517
C          7.26905         1.50378        -0.32968
C          8.55033         0.72532        -0.33313
C          9.84573         1.47167        -0.17501
C         11.06804         0.69627        -0.52607
C         -9.60207         2.98019         0.50162
C         -8.48524         3.64561         0.09518
C         -7.26114         2.93838        -0.26574
C         -6.06628         3.61298        -0.39392
C         -4.78986         2.91757        -0.55336
C         -3.60064         3.59776        -0.57130
C         -2.31228         2.85119        -0.32592
C         -1.12664         3.63938        -0.92626
C          0.18991         2.92208        -0.58966
C          1.12111         3.58169         0.38006
C          2.31331         2.80279         0.86674
C          3.59524         3.55861         0.69493
C          4.91572         2.86354         0.61370
C          6.00655         3.66506        -0.13396
C          7.32408         2.93256        -0.01607
C          8.55190         3.62714         0.01802
C          9.77602         2.93718        -0.12083
C         -8.56375         5.15337        -0.07526
C         -7.24052         5.86605         0.09064
C         -6.00093         5.05641        -0.03702
C         -4.71093         5.78636        -0.21365
C         -3.58810         5.07327        -0.94466
C         -2.28807         5.81758        -0.71641
C         -1.13662         5.12568        -0.53799
C          0.11963         5.85865        -0.16591
C          1.11511         5.05650         0.61327
C          2.34221         5.73522         1.26490
C          3.61515         5.04214         0.79004
C          4.94264         5.70049         0.91814
C          6.06379         5.09215         0.40013
C          7.33157         5.80070         0.18869
C          8.50114         5.08949         0.05392
C         -7.19335         7.20342         0.28516
C         -5.88381         7.93990         0.49614
C         -4.79347         7.27760        -0.33683
C         -3.60928         8.04495        -0.80803
C         -2.25210         7.34541        -0.91837
C         -1.31696         7.97359         0.13529
C          0.05190         7.31572         0.14436
C          1.10148         7.96944         1.04615
C          2.42497         7.23079         1.00879
C          3.62271         7.86145         1.11187
C          4.83505         7.06732         1.52565
C          6.20840         7.95564        -0.37773
C          7.27494         7.26769         0.13852
C         -5.93177         9.42949         0.25912
C         -4.88670        10.14356        -0.17902
C         -3.61743         9.58084        -0.79628
C         -2.34942        10.20017        -0.27470
C         -1.22157         9.47804         0.04887
C          0.03067        10.11301         0.28827
C          1.22191         9.42932         0.66658
C          2.44884        10.05318         0.70536
C          3.72918         9.38135         1.13866
C          4.91725         9.97995         0.38264
C          5.99962         9.40561        -0.17621
C        -10.58671        -0.52789         1.43694
C         -9.61074        -1.40032         0.74354
C         -8.62799        -0.72200        -0.22976
C         -7.41040        -1.47068        -0.71718
C         -6.16215        -0.74896        -1.12564
C         -4.86063        -1.50815        -1.49655
C         -3.56773        -0.75462        -1.12047
C         -2.41057        -1.48811        -0.97651
C         -1.10414        -0.79392        -0.99600
C          0.13250        -1.52994        -0.56852
C          1.11164        -0.80190         0.35582
C          2.42076        -1.56122         0.50444
C          3.69278        -0.88132         0.78070
C          4.97347        -1.61587         0.34809
C          6.28898        -0.83359         0.25809
C          7.27632        -1.41313        -0.75642
C          8.52379        -0.63115        -0.98276
C          9.80989        -1.35655        -1.36830
C         11.04269        -0.59254        -0.91707
C         -9.18322        -2.65689         1.30548
C         -8.04848        -3.47655         0.75949
C         -7.51452        -2.99188        -0.60665
C         -6.19354        -3.71858        -0.99554
C         -4.85965        -2.95655        -0.88178
C         -3.63685        -3.76216        -1.33390
C         -2.36399        -2.98069        -1.18896
C         -1.24786        -3.74834        -0.48301
C          0.07870        -3.00991        -0.46943
C          1.17835        -3.66714         0.29436
C          2.46160        -2.92817         0.36818
C          3.66655        -3.64083         0.00871
C          4.84131        -2.96254        -0.23988
C          6.01019        -3.65177        -0.86762
C          7.29115        -2.89411        -1.01412
C          8.61454        -3.57656        -0.96529
C          9.75481        -2.84194        -0.98752
C         -8.43510        -4.97835         0.64505
C         -7.29820        -5.81360         0.04581
C         -6.21735        -5.21840        -0.82786
C         -4.93633        -6.01673        -0.94839
C         -3.59420        -5.33590        -1.35424
C         -2.36697        -5.98281        -0.68309
C         -1.06648        -5.21948        -0.95927
C          0.17917        -5.93480        -0.36121
C          1.21138        -5.13832         0.38596
C          2.55515        -5.73247         0.81102
C          3.60611        -5.15949        -0.16431
C          5.01106        -5.70483         0.18743
C          5.99331        -5.19389        -0.93592
C          7.35279        -5.86535        -0.72837
C          8.66546        -5.11024        -0.95300
C         -7.22827        -7.08255         0.50554
C         -6.29793        -8.10988        -0.08319
C         -4.95637        -7.43366        -0.44909
C         -3.68008        -7.92982         0.16311
C         -2.39207        -7.22962        -0.13610
C         -1.16537        -7.91293         0.46056
C          0.15798        -7.39102        -0.03442
C          1.18415        -7.90092         0.97353
C          2.53614        -7.24195         0.78817
C          3.68426        -7.92248         0.52788
C          5.05018        -7.23694         0.46615
C          6.01596        -7.98384        -0.52310
C          7.32943        -7.20607        -0.56067
C         -6.15080        -9.40708         0.67532
C         -4.98379       -10.04835         0.83193
C         -3.68332        -9.34853         0.69034
C         -2.43568       -10.09209         0.61118
C         -1.20906        -9.42757         0.51299
C          0.00068       -10.11756         0.60291
C          1.25894        -9.45298         1.10170
C          2.53786       -10.08251         0.60500
C          3.69872        -9.38977         0.46144
C          4.98867       -10.06888         0.30015
C          6.11398        -9.41582        -0.04994
O         -2.89054        -3.29506        -2.49270
O          0.66244        -4.34591         1.51126
O         -5.02946         5.25392         1.09792
O          9.65035        -5.55865        -0.01832
H          9.33384        -5.36183         0.88680
O          0.66536         7.89668         2.43100
O         -9.64584         1.27434        -1.17403
O         -7.01337        -3.42888         1.77893
H         -6.18298        -3.01936         1.42874
O         -1.32455         3.62629        -2.35612
H         -0.59530         3.09276        -2.75720
O          0.42277        -0.67330         1.61287
H          1.02599        -0.25732         2.26762
O         -9.64396        -5.17997        -0.06663
H         -9.55132        -4.75370        -0.95051
O         -4.67299        -2.75987         0.55856
H         -3.76659        -3.04887         0.83010
O          0.75609         2.30417        -1.77205
O         -4.65257         7.62283        -1.75582
O         -4.99167        -7.17663        -1.86931
O         -5.63447         1.37665        -2.16362
O          0.49097        -7.38936         2.18436
O         -1.97625         7.58190         1.42169
H          0.84949         6.98720         2.76923
O          0.60916        -6.97957        -1.32084
O          6.22058         1.15966        -1.30619
O          1.89001         1.99914         2.00608
O         -1.72301         7.58759        -2.22551
H         -2.42212         7.35638        -2.87338
O         -6.46304        -4.57180        -2.13156
O         -7.19145        -1.08081        -2.11705
O          1.22957        -9.79043         2.52255
H          0.71081        -9.07949         2.97111
O          3.16078        -5.52469        -1.45978
H          3.94110        -5.45180        -2.09254
O         -0.93692        -0.04566        -2.25131
O          7.49779        -0.70390        -2.01082
O          6.43005        -3.14144        -2.17435
O         -1.00104        -7.45100         1.88774
O          4.50075        -1.64345         1.73422
O         -3.67323        10.00083        -2.19340
H         -4.35518         9.43428        -2.62093
O          0.62148         6.84819        -1.11386
O          5.55420         7.47353         2.43477
O         -1.92618         8.69988         2.34152
H         -0.99681         8.63412         2.69951
O          3.97030         9.73436         2.52957
H          4.74764         9.20084         2.82624
O          2.32453         0.35048        -1.31503
H          2.06642         0.93949        -2.05995
O          9.15870         0.78564         0.97947
O         -9.81728        -1.34223        -0.73220
O          0.38449         4.16411         1.51159
O         -5.52165         7.78962         1.89347
H         -5.32720         6.83311         2.04670
O          5.62130        -7.46064         1.77042
H          5.86263        -6.57345         2.13355
O         -3.72418        -8.15415         1.60336
O         -3.39461        -5.66721        -2.73902
H         -4.10114        -5.23957        -3.26703
O          5.40393         2.26995         1.85252
O          3.41187         4.40143        -0.51489
O          0.62696        -2.36644        -1.65206
O          2.20916         5.55988         2.69547
H          2.97198         5.98860         3.13940
O         -0.85236        -5.12181        -2.36391
H         -0.54059        -5.99290        -2.69307
O          5.56021        -5.53703        -2.21897
O         -8.49907        -3.36776        -1.57973
H         -8.28607        -2.89340        -2.41391
O          3.71036         0.53476         2.63278
H          4.12989         1.36085         2.96609
O          2.89265        -5.28449         2.14005
H          2.08192        -4.87552         2.53087
O         -1.78442        -3.75219         0.87150
H         -1.06509        -4.05387         1.48889
O          5.44392        -8.09118        -1.82913
H          5.49198        -7.19124        -2.26652
O         -6.91681         1.12045         1.23985
H         -6.23432         1.75432         1.55059
O         -4.86130        -1.65158        -2.91669
H         -5.08123        -0.78406        -3.31772
O         -2.11145         2.75667         1.11102
H         -1.57775         3.52447         1.42459
O         -6.95284        -8.55459        -1.30148
H         -6.60373        -7.99302        -2.03606
O          5.45187        -5.01760         1.37999
H          4.66001        -4.91472         1.97022
O          5.72735         3.73621        -1.54625
H          4.88379         4.23094        -1.66568
O          5.26043         7.33151        -1.14125
H          4.62592         7.98917        -1.48916
O         -9.55337         5.72095         0.78230
H         -9.19906         5.74401         1.69451
O          6.95247        -0.97771         1.52945
H          6.25321        -1.07384         2.21959
O          9.89925        -1.35048        -2.81695
H          8.97547        -1.42533        -3.15473
O         -3.86746         5.11151        -2.36570
H         -3.13232         4.62793        -2.80976
H         12.00276        -1.10148        -1.09686
H         12.03929         1.18409        -0.34576
H         10.70538         3.51476        -0.23508
H          9.44668         5.63328        -0.08908
H          8.06023         7.83986         0.65127
H          6.81938        10.07063        -0.49905
H          4.93476        11.08031         0.45853
H          2.50964        11.12113         0.44451
H          0.09160        11.20005         0.12474
H         -2.28685        11.29830        -0.32191
H         -4.98244        11.23909        -0.24670
H         -6.83528         9.95448         0.60821
H         -8.13909         7.76006         0.38191
H         -8.92003         5.32934        -1.12962
H        -10.48151         3.56550         0.81438
H        -11.48721         1.37493         1.66982
H        -11.25901        -1.00049         2.16839
H         -9.49979        -2.89612         2.33217
H         -8.60809        -5.34861         1.68857
H         -8.00118        -7.43006         1.20942
H         -7.09276        -9.93581         0.88468
H         -4.96010       -11.06839         1.24511
H         -2.46190       -11.19070         0.65141
H         -0.03361       -11.21625         0.67700
H          2.55217       -11.18300         0.57989
H          5.01739       -11.14432         0.53491
H          7.07320        -9.95109        -0.12370
H          8.27612        -7.76374        -0.46732
H          9.03703        -5.41629        -1.96931
H         10.71867        -3.37528        -0.95156
