         640
 CSIRO Nanostructure Databank - Neutral Graphene Oxide Data Set
C         23.16700        27.44822        -0.56643
C         23.25877        28.76043        -0.95772
C         23.48710        31.55009        -1.77596
C         23.60667        32.86873        -2.17425
C         23.80666        35.72645        -2.79686
C         23.89821        37.11125        -3.14615
C         23.96972        39.95003        -3.90499
C         23.88381        41.31743        -3.70506
C         23.48635        44.14753        -2.71604
C         23.38840        45.45784        -2.40512
C         25.43070        24.66790         0.53008
C         24.26990        25.38101         0.22257
C         25.55524        27.47011         0.02125
C         24.31742        26.76079        -0.08643
C         25.67166        28.78116        -0.43564
C         24.51034        29.45210        -0.95496
C         25.97665        31.33750        -1.77363
C         24.61602        30.78023        -1.43622
C         26.02785        32.85287        -1.79560
C         24.85967        33.55191        -2.14017
C         26.20481        35.61555        -2.38527
C         24.92325        34.97096        -2.45704
C         26.37192        36.98493        -3.00000
C         25.09392        37.75848        -3.24973
C         26.28059        39.97086        -3.00767
C         25.25268        39.18144        -3.78663
C         25.97857        41.31575        -2.38584
C         24.88587        42.06506        -3.08068
C         25.95234        44.22938        -2.32076
C         24.83321        43.56463        -3.08651
C         25.84418        45.63327        -2.11696
C         24.57547        46.27903        -2.23645
C         25.64692        48.42957        -1.86147
C         24.49859        47.67080        -2.08366
C         27.89847        23.17504         0.93558
C         27.87770        24.59199         0.96462
C         26.66900        25.30606         0.69857
C         28.00841        27.45040         0.60783
C         26.66060        26.81447         0.80445
C         28.11625        28.77527         0.16850
C         26.96982        29.47124        -0.40694
C         28.46516        31.33835        -1.21876
C         27.11191        30.70706        -1.00018
C         28.44799        32.85591        -1.23295
C         27.27511        33.53785        -1.60501
C         28.56703        35.70251        -1.65102
C         27.31866        34.96881        -1.86517
C         28.63191        37.07032        -1.86205
C         27.38777        37.78414        -2.22007
C         28.58658        40.04297        -2.04354
C         27.34551        39.26314        -2.30900
C         28.42663        41.48495        -1.74730
C         27.23279        42.12268        -2.07790
C         28.29216        44.29895        -1.55604
C         27.14108        43.55205        -1.98627
C         28.23076        45.72366        -1.51386
C         26.99740        46.39782        -1.76968
C         28.12089        48.58780        -1.47957
C         26.91027        47.81980        -1.69945
C         28.12440        50.00172        -1.52143
C         30.25326        23.13147         1.54891
C         29.05318        22.46958         1.20742
C         30.30189        24.54831         1.56411
C         29.10413        25.30076         1.24550
C         30.35446        27.46941         1.35675
C         29.13534        26.70906         1.06679
C         30.49567        28.82047         0.82676
C         29.40785        29.45866         0.18183
C         30.89721        31.41950        -0.48179
C         29.54774        30.75206        -0.36410
C         30.79612        32.92677        -0.40256
C         29.65209        33.59059        -0.91580
C         30.83684        35.76878        -0.65241
C         29.70104        35.00870        -1.09220
C         30.90648        37.17899        -0.81571
C         29.95872        37.79789        -1.80658
C         30.88303        40.08510        -0.95134
C         29.85941        39.32726        -1.71163
C         30.76475        41.51127        -0.86064
C         29.58009        42.19949        -1.28466
C         30.63603        44.38253        -0.79015
C         29.49618        43.62638        -1.19682
C         30.60167        45.80635        -0.85574
C         29.39629        46.48033        -1.20337
C         30.54763        48.66382        -1.01983
C         29.35040        47.91311        -1.23310
C         30.52837        50.08164        -1.10539
C         29.29164        50.72493        -1.35387
C         32.74113        20.26258         1.56956
C         31.55367        20.91547         1.53522
C         32.77429        23.07101         2.11644
C         31.44245        22.33120         1.91781
C         32.77750        24.52944         1.93236
C         31.56893        25.21553         1.76686
C         32.92478        27.36067         1.74495
C         31.61159        26.68728         1.77280
C         32.95199        28.77766         1.53269
C         31.88795        29.35697         0.63107
C         33.00943        31.58141         0.84334
C         31.93724        30.84257         0.44731
C         33.05835        33.00751         0.58915
C         31.90922        33.67304         0.06609
C         33.02619        35.84859         0.48652
C         31.92150        35.10011        -0.01655
C         33.04013        37.27917         0.39123
C         31.97117        37.93977        -0.28058
C         33.04388        40.14108         0.21052
C         31.96068        39.39610        -0.37358
C         32.96219        41.57562         0.24819
C         31.84436        42.25798        -0.26865
C         32.91267        44.48587         0.09530
C         31.80476        43.71416        -0.29765
C         32.95085        45.90265        -0.10886
C         31.77823        46.56667        -0.57417
C         32.96920        48.71941        -0.49054
C         31.76973        47.98336        -0.70068
C         32.97537        50.14131        -0.64852
C         31.76286        50.82505        -0.95116
C         32.99195        52.92523        -1.02424
C         31.80015        52.22904        -1.10794
C         35.26523        18.77298         1.61839
C         35.24095        20.20622         1.73409
C         34.00646        20.92761         1.80566
C         35.26605        23.04758         1.98968
C         34.03556        22.32927         1.95568
C         35.25502        24.47462         2.12410
C         34.05054        25.20650         2.06432
C         35.30232        27.38216         2.51356
C         34.06865        26.64506         2.06678
C         35.32580        28.83323         2.11944
C         34.11817        29.49907         1.77499
C         35.41450        31.63249         1.57761
C         34.06324        31.00534         1.76233
C         35.51384        33.03494         1.05797
C         34.19753        33.75556         0.95932
C         35.22968        35.90555         1.72941
C         34.15740        35.15122         0.99249
C         35.34008        37.35709         1.33890
C         34.18899        38.03002         0.85488
C         35.26669        40.22568         1.34704
C         34.15099        39.45680         0.76355
C         35.34839        41.68016         1.13239
C         34.04742        42.34078         0.89300
C         35.33004        44.54546         0.83379
C         34.05789        43.84981         0.75754
C         35.25478        46.03906         0.94443
C         34.11911        46.65835         0.17337
C         35.39436        48.78070         0.09016
C         34.15848        48.04053        -0.08012
C         35.41797        50.17615        -0.17388
C         34.20494        50.86527        -0.51596
C         35.46817        52.99711        -0.75039
C         34.21363        52.26932        -0.75102
C         35.52700        54.37414        -1.02887
C         37.68460        18.70785         1.26439
C         36.41658        18.06261         1.38821
C         37.72571        20.14825         1.63646
C         36.46839        20.91950         1.76368
C         37.75673        23.07223         1.76565
C         36.50165        22.32765         1.87670
C         37.78077        24.47050         1.91761
C         36.56228        25.16631         2.46918
C         37.76841        27.33863         2.08305
C         36.57454        26.64941         2.20631
C         37.78907        28.78940         2.10088
C         36.55719        29.51207         2.09049
C         37.84679        31.65346         1.89216
C         36.57421        30.94647         1.83766
C         37.86941        33.08879         1.93002
C         36.63423        33.81588         1.69622
C         37.73059        35.95014         2.23697
C         36.55324        35.17581         1.80803
C         37.73063        37.40298         2.01369
C         36.55715        38.04660         1.66304
C         37.79012        40.27540         1.78751
C         36.52089        39.51975         1.77321
C         37.76104        41.68117         1.62036
C         36.50690        42.37752         1.38095
C         37.78077        44.57956         1.35096
C         36.45568        43.88155         1.58487
C         37.78519        45.99833         1.02292
C         36.58397        46.71396         0.73139
C         37.83456        48.88655         0.73947
C         36.59322        48.08453         0.43804
C         37.88721        50.23532         0.08192
C         36.66874        50.90344        -0.17365
C         37.93083        52.99024        -0.56015
C         36.68567        52.29511        -0.50337
C         37.95983        54.38757        -0.87994
C         36.74281        55.05013        -1.09406
C         40.11976        15.97559         0.47362
C         38.95218        16.60233         0.82068
C         40.05370        18.80067         0.48572
C         38.85846        18.03040         0.91321
C         40.10043        20.28594         0.67118
C         38.98752        20.93197         1.41990
C         40.16691        23.09790         1.19864
C         38.96138        22.40327         1.42162
C         40.19018        24.51273         1.35979
C         38.98482        25.19719         1.71666
C         40.22578        27.33256         1.73206
C         39.01236        26.62463         1.86122
C         40.25963        28.76013         1.92295
C         39.02469        29.48529         2.06800
C         40.27226        31.64087         2.33153
C         39.02142        30.91864         2.08631
C         40.31896        33.10456         2.19810
C         39.08018        33.78626         2.14002
C         40.30575        36.02161         2.19390
C         39.05508        35.24426         2.36141
C         40.26596        37.39663         2.09480
C         38.97862        38.15194         2.43622
C         40.22684        40.30113         1.99070
C         39.00045        39.59182         1.98349
C         40.20797        41.71049         1.86009
C         38.98334        42.40871         1.68517
C         40.25045        44.52335         1.25208
C         38.95317        43.84936         1.48040
C         40.24678        46.00380         1.35025
C         39.02204        46.71434         0.96277
C         40.36825        48.74537         0.55951
C         39.10924        48.08422         0.68341
C         40.40754        50.06492        -0.17994
C         39.12757        50.88640        -0.08773
C         40.41993        52.96493        -0.59828
C         39.14253        52.25625        -0.39940
C         40.40019        54.44163        -0.56116
C         39.22668        55.11277        -0.88652
C         40.47939        57.14599        -1.46386
C         39.29980        56.47614        -1.36774
C         42.54215        16.02816        -0.10402
C         41.33694        16.70279         0.20568
C         42.53042        18.85576         0.07136
C         41.33679        18.11256         0.26088
C         42.56817        20.29700         0.26710
C         41.38829        21.00431         0.62532
C         42.61214        23.12030         0.70661
C         41.39318        22.39181         0.85905
C         42.63001        24.53673         0.88652
C         41.41801        25.23139         1.21619
C         42.67267        27.35382         1.28405
C         41.44264        26.63748         1.41663
C         42.69909        28.76445         1.51283
C         41.49818        29.43569         1.85945
C         42.79556        31.61908         1.93859
C         41.57127        30.85812         2.21279
C         42.76768        33.05140         1.98077
C         41.56448        33.77729         2.15757
C         42.74874        35.96750         1.74724
C         41.61674        35.27914         2.43719
C         42.72454        37.42968         1.47229
C         41.47634        38.16547         1.91430
C         42.75384        40.29352         1.98775
C         41.49247        39.55814         2.00800
C         42.76459        41.69726         1.96060
C         41.48292        42.47308         2.14400
C         42.80422        44.60235         1.62704
C         41.54299        43.81783         1.45619
C         42.80515        45.96702         1.50799
C         41.54238        46.74318         1.43456
C         42.84903        48.78400         0.79887
C         41.57524        48.12650         0.91694
C         42.86483        50.18115         0.40358
C         41.68281        50.83202         0.07021
C         42.93713        53.00237        -0.08819
C         41.71612        52.23919        -0.33157
C         42.92132        54.49418         0.13890
C         41.62229        55.19682        -0.26581
C         42.99272        57.22224        -1.05561
C         41.66858        56.64261        -0.77685
C         43.69495        16.74515        -0.36440
C         44.93464        18.91092        -0.53627
C         43.72151        18.16044        -0.27927
C         44.98356        20.30752        -0.26241
C         43.79017        21.00382         0.16355
C         45.02985        23.15550         0.25719
C         43.81723        22.42443         0.38040
C         45.05640        24.55333         0.40843
C         43.84871        25.25654         0.73690
C         45.10745        27.39623         0.82879
C         43.87672        26.66882         0.94938
C         45.13834        28.79042         1.09440
C         43.93881        29.48503         1.45501
C         45.28637        31.58920         1.89762
C         43.96886        30.89382         1.68339
C         45.19903        33.08349         1.66261
C         44.01444        33.75834         1.71806
C         45.24488        35.97256         1.52246
C         43.95019        35.20820         1.28252
C         45.23958        37.38014         1.67154
C         43.98380        38.07225         2.13283
C         45.22058        40.23592         1.89222
C         44.00412        39.56422         1.95324
C         45.25431        41.69881         2.26123
C         43.98568        42.44876         1.95623
C         45.29407        44.57352         1.83250
C         44.02967        43.84657         1.83664
C         45.30563        45.99399         1.68347
C         44.02765        46.78152         1.82118
C         45.30472        48.80660         1.01904
C         44.05562        48.13734         1.14218
C         45.31936        50.17320         0.57437
C         44.13505        50.87734         0.34012
C         45.35710        53.06520         0.10470
C         44.13551        52.31784         0.11006
C         45.38545        54.44686        -0.23545
C         44.18162        55.16679        -0.37714
C         44.14368        56.51556        -0.85398
C         47.24250        19.00325        -1.30535
C         46.09419        18.28178        -1.04527
C         47.32097        20.38684        -1.00768
C         46.19418        21.02194        -0.44861
C         47.44279        23.22242        -0.46338
C         46.32816        22.40554         0.13820
C         47.45806        24.61516        -0.28042
C         46.28039        25.30038         0.20796
C         47.51379        27.44668         0.20764
C         46.29733        26.69538         0.41015
C         47.53290        28.82120         0.47007
C         46.36953        29.53765         0.92285
C         47.60472        31.69970         0.84773
C         46.43624        30.91549         1.18393
C         47.60310        33.08276         0.94512
C         46.51843        33.80803         1.68691
C         47.67885        35.99415         1.22091
C         46.45053        35.28193         1.38232
C         47.67442        37.42170         1.29990
C         46.44994        38.10875         1.55865
C         47.69345        40.24699         1.62833
C         46.45986        39.53657         1.71961
C         47.70060        41.68909         1.76327
C         46.52120        42.40666         1.86791
C         47.77357        44.53539         1.81389
C         46.51946        43.84505         1.85033
C         47.75267        46.00464         1.92126
C         46.50475        46.72949         1.62294
C         47.81374        48.82085         1.23112
C         46.53868        48.12575         1.32700
C         47.87005        50.19488         0.80939
C         46.61718        50.84431         0.35745
C         47.87752        53.11454         0.48657
C         46.62993        52.32793         0.12731
C         47.85168        54.44525        -0.22708
C         46.68664        55.05245        -0.52164
C         49.58887        20.56811        -2.06757
C         48.52932        21.15635        -1.29415
C         49.81135        23.28707        -1.22850
C         48.56831        22.53183        -1.00121
C         49.77188        24.75782        -1.20201
C         48.62696        25.38746        -0.63988
C         49.86034        27.48875        -0.66451
C         48.67702        26.77784        -0.34920
C         50.04174        28.84930        -0.16271
C         48.80554        29.55114         0.42464
C         50.00896        31.67980         0.18700
C         48.81328        31.00963         0.41428
C         50.05934        33.12369         0.50295
C         48.75659        33.87609         0.39128
C         50.06559        36.02408         0.59982
C         48.86332        35.30583         0.86056
C         50.07206        37.45320         0.72422
C         48.88535        38.14780         1.10755
C         50.12651        40.29433         1.05953
C         48.89262        39.56720         1.28143
C         50.19109        41.68567         1.32257
C         49.02695        42.37146         1.98299
C         50.24514        44.55390         1.63313
C         48.99134        43.85868         1.76306
C         50.29450        45.96863         1.63885
C         49.06402        46.74390         1.85955
C         50.28927        48.82005         1.30895
C         49.04000        48.15701         1.45071
C         50.30685        50.22580         1.05465
C         49.07631        50.89080         0.74670
C         50.37129        53.03975         0.70214
C         49.15827        52.30775         0.19245
C         50.69463        21.25863        -2.46706
C         52.00407        23.46270        -2.58015
C         50.96978        22.60172        -1.95740
C         51.97580        24.86911        -2.39465
C         50.86638        25.50624        -1.68640
C         52.01084        27.71902        -1.86594
C         50.90077        26.91164        -1.43520
C         52.14746        29.05634        -1.47733
C         51.13940        29.67587        -0.66639
C         52.36034        31.82265        -0.68884
C         51.17576        31.03948        -0.35481
C         52.45217        33.16104        -0.35447
C         51.32516        33.87810         0.26939
C         52.41055        36.08493        -0.19467
C         51.26321        35.35516         0.19975
C         52.37865        37.51250        -0.13313
C         51.25112        38.18334         0.37682
C         52.50324        40.33084         0.39004
C         51.27341        39.61745         0.56834
C         52.57168        41.71346         0.72662
C         51.39486        42.39866         1.15342
C         52.68281        44.51340         1.25265
C         51.44636        43.82314         1.37513
C         52.73052        45.93494         1.37199
C         51.51321        46.66317         1.48162
C         52.76068        48.79473         1.35706
C         51.52282        48.10331         1.41841
C         52.76263        50.22676         1.25545
C         51.53530        50.93473         1.10884
C         51.49000        52.38481         1.06626
C         54.09065        23.65257        -3.80369
C         53.05731        22.87738        -3.29893
C         54.08945        25.05324        -3.63522
C         53.02141        25.65798        -2.93465
C         54.26050        27.86469        -2.99548
C         52.92313        27.16624        -2.92721
C         54.38961        29.19273        -2.56521
C         53.31892        29.83808        -1.83321
C         54.63734        31.92472        -1.72181
C         53.44787        31.16190        -1.40018
C         54.75659        33.26904        -1.34778
C         53.74836        33.91236        -0.43610
C         54.75162        36.13327        -1.02153
C         53.59723        35.40568        -0.63948
C         54.78417        37.55799        -0.90465
C         53.50039        38.31716        -0.73723
C         54.91069        40.32958        -0.12353
C         53.66638        39.66907        -0.09335
C         55.00147        41.70249         0.28236
C         53.82203        42.40166         0.65706
C         55.14333        44.46400         0.98273
C         53.88474        43.79294         0.96286
C         55.17676        45.87232         1.27270
C         53.98967        46.61945         1.37277
C         55.21794        48.79052         1.36780
C         54.00482        48.07424         1.40572
C         55.19845        50.20535         1.28442
C         54.01333        50.90409         1.23325
C         56.25004        25.29198        -4.88002
C         55.21684        25.86016        -4.10700
C         56.51712        27.95413        -3.99547
C         55.32367        27.22355        -3.70176
C         56.66071        29.30325        -3.55674
C         55.59358        29.93117        -2.84013
C         56.90749        32.01634        -2.73169
C         55.70668        31.28795        -2.44692
C         57.00575        33.39164        -2.38000
C         55.89350        34.04363        -1.73130
C         57.03528        36.25309        -2.07331
C         55.90902        35.43523        -1.50764
C         57.19478        37.59207        -1.40302
C         56.01597        38.26578        -0.96526
C         57.35954        40.30380        -0.52807
C         56.09664        39.63718        -0.55371
C         57.45667        41.66004        -0.08332
C         56.26390        42.37451         0.31110
C         57.68136        44.34018         1.00934
C         56.33115        43.72868         0.71067
C         57.68949        45.84274         0.95818
C         56.48023        46.54599         1.40395
C         57.75740        48.71905         0.98452
C         56.51377        48.07671         1.44851
C         57.39376        26.00983        -5.20131
C         58.75579        28.06923        -5.01302
C         57.56250        27.33361        -4.74087
C         58.90520        29.35525        -4.56098
C         57.86909        30.01300        -3.82661
C         59.22173        32.08968        -3.54681
C         58.00652        31.36415        -3.37557
C         59.33789        33.39771        -3.14655
C         58.22738        34.10422        -2.59575
C         59.53202        36.19387        -2.23656
C         58.31565        35.48312        -2.25030
C         59.59835        37.52554        -1.86359
C         58.44213        38.24464        -1.41343
C         59.77936        40.29119        -0.93667
C         58.53656        39.60719        -0.95295
C         59.86600        41.60823        -0.54901
C         58.71943        42.33157        -0.11242
C         59.98829        44.46763         0.03901
C         58.82313        43.70518         0.26301
C         60.03169        45.83057         0.28023
C         58.85913        46.54237         0.69837
C         58.86308        47.99332         0.69548
O         41.19311        52.43927        -1.76719
O         38.70060        20.36456         2.74171
O         33.63774        43.16022         2.05119
O         41.38496        56.33302         0.63886
O         31.95642        22.62494         3.25294
O         40.73172        46.51884         2.65328
O         26.85104        38.52463        -1.04402
O         49.83846        28.96449         1.28462
O         38.27460        35.58823         3.58720
O         39.70153        19.73799        -0.63131
O         40.98752        31.16178         3.52987
O         29.63201        39.87055        -3.07166
O         46.75861        51.40673        -1.02150
O         35.53118        39.92054         2.78033
O         50.92098        33.41184         1.63946
O         56.65959        47.28238         2.67326
O         30.75969        27.31737         2.77877
O         40.99170        43.92505         0.10929
O         50.95551        22.71538        -0.49601
O         48.41258        46.48530         3.15716
O         26.18579        30.94590        -3.18712
H         27.12738        31.17006        -3.39484
O         30.58282        37.50839        -3.10419
H         30.26061        38.20353        -3.72633
O         25.04442        43.94398        -4.49993
H         24.99276        44.92292        -4.54586
O         37.69742        49.21827         2.17914
H         37.57683        48.37378         2.66566
O         43.92047        47.10507         3.25522
H         43.69840        46.27853         3.73500
O         25.38844        40.96406        -1.07409
H         25.80179        40.12044        -0.76813
O         43.86333        35.13438        -0.19629
H         43.68927        36.06145        -0.49887
O         33.62847        31.39435         3.11502
H         34.25366        30.99673         3.75743
O         26.33497        27.08706         2.22304
H         25.47782        26.64752         2.40981
O         47.85113        53.35742         1.91612
H         47.07955        53.92872         2.11497
O         46.75520        22.17209         1.53941
H         47.64366        21.75623         1.50683
O         41.43325        42.81147         3.56918
H         41.44745        41.97539         4.08171
O         46.95456        33.77150         3.09663
H         46.75852        32.85906         3.43233
O         35.92380        32.89535        -0.35884
H         36.72137        32.32382        -0.37780
O         36.65991        25.03598         3.93588
H         35.98615        25.65813         4.30991
O         36.14492        44.03197         3.03017
H         35.28070        43.56552         3.15936
O         38.96235        38.21786         3.89637
H         38.80212        37.29438         4.21359
O         28.83341        30.96612        -2.66439
H         28.83158        29.98312        -2.69672
O         32.22769        28.78663        -0.70263
H         32.00486        29.48896        -1.37327
O         53.05415        38.61278        -2.13021
H         52.21510        39.11699        -2.05875
O         45.32341        41.67853         3.74727
H         46.19122        41.28878         3.99041
O         45.58612        31.41086         3.34569
H         44.77400        31.65116         3.84331
O         31.40658        31.12454        -1.85404
H         30.63646        31.26573        -2.46523
O         54.32946        33.79916         0.92902
H         53.59339        33.90663         1.57083
O         42.88959        37.67621         0.02930
H         42.00644        37.59900        -0.39025
O         43.00743        54.61754         1.60691
H         42.60491        55.49274         1.82442
O         27.00074        36.75359        -4.31630
H         26.48721        36.05012        -4.76797
O         41.83172        35.36595         3.89030
H         41.03227        35.00413         4.32941
O         34.91402        46.32413         2.35857
H         35.43061        45.67601         2.90784
O         25.75888        39.03395        -5.16829
H         26.43778        38.31423        -5.15378
O         56.60776        36.58410        -3.46709
H         57.31100        37.15025        -3.85206
O         34.74840        35.93747         3.12633
H         35.34235        36.53481         3.63069
O         43.79654        37.81232         3.54839
H         44.51728        38.25436         4.04355
O         40.48149        49.70070        -1.60882
H         40.69425        50.53969        -2.08857
O         49.30963        52.20958        -1.24721
H         48.48280        51.78559        -1.58789
O         52.25190        27.50540        -4.20773
H         52.84072        27.19695        -4.92976
O         35.20312        27.38590         4.01468
H         35.92114        27.97043         4.34300
O         48.51899        33.96852        -1.06367
H         47.65005        34.40417        -1.19728
O         57.93189        44.01899         2.44277
H         57.38433        44.63381         2.97854
O         49.27538        42.20961         3.44253
H         48.76461        42.90906         3.90479
H         22.20832        26.91345        -0.62675
H         22.35899        29.26369        -1.33460
H         22.47827        31.12473        -1.68671
H         22.69410        33.41865        -2.43744
H         22.80696        35.27367        -2.80545
H         22.95789        37.64055        -3.35923
H         23.09413        39.43099        -4.32378
H         22.97660        41.83504        -4.05588
H         22.58278        43.53068        -2.82610
H         22.40553        45.92361        -2.23670
H         25.35109        23.57630         0.62654
H         23.31535        24.84525         0.12211
H         25.54694        49.52026        -1.78207
H         23.52158        48.16980        -2.15744
H         26.98497        22.61386         0.70146
H         27.19073        50.54878        -1.70849
H         29.01544        21.37267         1.19454
H         29.23936        51.82009        -1.41092
H         32.75026        19.19773         1.30140
H         30.65748        20.36999         1.20896
H         32.97154        54.01119        -1.18219
H         30.88102        52.78827        -1.32562
H         34.32217        18.21567         1.68828
H         34.60774        54.94691        -1.20626
H         36.34764        16.97434         1.25233
H         36.72776        56.12610        -1.31146
H         40.15363        14.87743         0.42468
H         38.07157        15.99020         1.06061
H         40.54628        58.09076        -2.02270
H         38.40455        56.91874        -1.82529
H         42.55085        14.92991        -0.15070
H         43.03725        58.23355        -1.48507
H         44.61029        16.19327        -0.61519
H         45.09232        57.00663        -1.11309
H         48.10954        18.47275        -1.71875
H         46.08855        17.20728        -1.26962
H         48.80321        54.94319        -0.46345
H         46.71334        56.04157        -0.99948
H         49.45757        19.54814        -2.45223
H         50.35721        54.13927         0.70146
H         51.37275        20.80729        -3.20453
H         52.37465        52.95833         1.37701
H         54.91834        23.15223        -4.32192
H         53.09497        21.78794        -3.43202
H         56.14347        50.76435         1.27484
H         54.04668        51.99888         1.16390
H         56.16614        24.25710        -5.23719
H         57.78158        49.80988         0.85308
H         58.18783        25.54048        -5.79929
H         59.55895        27.58647        -5.58822
H         59.83723        29.88935        -4.78784
H         60.09330        31.60038        -4.00080
H         60.29285        33.91725        -3.30199
H         60.47008        35.67774        -2.48457
H         60.58030        38.01455        -1.86712
H         60.69891        39.77518        -1.24050
H         60.85159        42.09152        -0.54910
H         60.88006        43.99124        -0.39156
H         60.95138        46.39601         0.07432
H         59.78365        48.50181         0.37273
