         651
 CSIRO Nanostructure Databank - Neutral Graphene Oxide Data Set
C          5.73992        31.85428         0.23155
C          5.71945        33.21393         0.36849
C          8.21155        27.55452         0.27738
C          8.15218        28.93070         0.53034
C          6.96227        29.68766         0.29370
C          8.10834        31.74414         0.94304
C          6.93129        31.06723         0.47956
C          8.03530        33.16845         1.26532
C          6.87083        33.96129         0.81392
C          8.11801        36.11549         0.95515
C          6.92782        35.34024         0.72870
C          8.17089        37.46254         0.66929
C         10.70966        23.36329        -0.10061
C         10.66503        24.68004         0.30198
C          9.47085        25.45160         0.12843
C         10.60224        27.47196         0.95836
C          9.41186        26.80719         0.45588
C         10.55045        28.89903         1.16043
C          9.34764        29.61835         0.95832
C         10.55285        31.76241         1.31151
C          9.31063        31.03922         1.14494
C         10.58045        33.16315         1.26569
C          9.36709        33.92816         1.49841
C         10.57930        36.04799         0.74224
C          9.38446        35.45539         1.50838
C         10.59478        37.53932         1.01288
C          9.40140        38.23585         0.80001
C         10.61562        40.40664         0.66539
C          9.42406        39.65639         0.63655
C         10.67657        41.77936         0.39546
C         13.68137        19.67523        -1.64185
C         13.42485        20.78909        -0.79272
C         12.21742        21.48960        -0.83196
C         13.02762        23.14675         0.91357
C         11.82047        22.42999         0.28100
C         13.03998        24.62037         1.05899
C         11.85227        25.33565         0.85638
C         12.98741        27.36429         1.72271
C         11.77886        26.73005         1.16597
C         12.97460        28.87319         1.79682
C         11.75234        29.62192         1.44301
C         13.03851        31.74131         1.59706
C         11.77988        31.01603         1.42208
C         13.05827        33.12038         1.34469
C         11.84565        33.81654         0.77930
C         13.06304        35.99033         0.93619
C         11.88427        35.32052         0.96216
C         13.11309        37.46332         1.15330
C         11.84650        38.25433         1.26882
C         13.14648        40.34385         0.54527
C         11.88400        39.78319         1.20506
C         13.14153        41.72338         0.22522
C         11.92676        42.48301         0.28606
C         13.22991        44.57496        -0.05649
C         11.99019        43.88501         0.15384
C         13.33773        45.98130         0.07670
C         16.32158        15.58379        -2.78456
C         15.99335        16.71542        -1.92925
C         15.02639        17.73505        -2.29356
C         15.82993        19.23169        -0.48760
C         14.82022        18.85460        -1.46969
C         15.67317        20.49503         0.19006
C         14.47325        21.19746         0.11265
C         15.60877        23.17172         1.18679
C         14.35037        22.43640         0.90301
C         15.55288        24.54440         1.42155
C         14.28751        25.28729         1.39298
C         15.52274        27.35540         2.19621
C         14.27911        26.64588         1.67698
C         15.56926        28.83302         1.80446
C         14.27710        29.57839         1.62823
C         15.50367        31.71521         2.06742
C         14.25709        31.03115         1.77036
C         15.55144        33.23026         1.78954
C         14.33735        33.79259         1.16403
C         15.63118        35.98598         1.11218
C         14.36906        35.28832         0.86917
C         15.61877        37.49546         1.17341
C         14.34084        38.09755         0.54327
C         15.62045        40.30598         0.41665
C         14.32851        39.60687         0.52483
C         15.65600        41.69154        -0.08744
C         14.34239        42.34336        -0.44554
C         15.61499        44.51478        -0.66891
C         14.41013        43.84446        -0.35157
C         15.62699        45.94280        -0.77217
C         14.50820        46.68573        -0.25686
C         15.29106        49.08452        -0.51041
C         14.54654        48.10379         0.11048
C         15.65341        50.37902        -0.02675
C         19.13010        11.76805        -4.33265
C         18.95847        13.07056        -3.64800
C         17.65481        13.68112        -3.45661
C         18.54617        15.19725        -1.68942
C         17.49980        14.82384        -2.64622
C         18.25252        16.23976        -0.66754
C         17.00902        17.07822        -0.82791
C         17.98364        18.86206         0.65164
C         16.98017        18.45010        -0.28709
C         17.73773        20.04212         1.35667
C         16.74440        21.00085         1.01998
C         18.05179        23.12003         1.59727
C         16.81701        22.40003         1.34504
C         18.03850        24.51791         1.53241
C         16.79738        25.26975         1.57528
C         18.07003        27.40272         1.90366
C         16.79889        26.64913         1.78075
C         18.07378        28.89949         2.14397
C         16.79756        29.61936         2.07252
C         18.02115        31.78512         2.10854
C         16.80055        31.00775         2.05528
C         18.01540        33.19834         1.98901
C         16.84081        33.89800         1.63738
C         18.11100        36.01989         1.34381
C         16.82780        35.30095         1.32773
C         18.14901        37.40875         0.95546
C         16.87117        38.03158         0.45684
C         18.16075        40.14879         0.05882
C         16.90353        39.53662         0.51112
C         18.09866        41.48291        -0.62182
C         16.83949        42.30938        -0.36809
C         18.08682        44.38101        -0.74015
C         16.86510        43.73949        -0.68586
C         18.13918        45.75224        -1.28080
C         16.84517        46.55997        -1.34770
C         18.21988        48.66201        -1.77588
C         17.00337        48.01647        -1.59832
C         18.32840        50.09371        -1.80689
C         16.66239        51.15816        -0.62598
C         18.43340        52.95036        -0.60422
C         17.27507        52.29633        -0.08201
C         18.61166        54.28418        -0.25451
C         21.68384         7.69220        -5.31197
C         21.58653         9.00724        -4.79064
C         20.37953         9.69753        -4.80988
C         21.14590        11.22606        -2.96009
C         20.20832        10.94775        -4.12129
C         21.27931        12.70544        -2.64878
C         20.07808        13.59222        -2.77865
C         20.84047        14.90452        -0.75999
C         19.78643        14.57001        -1.69349
C         20.66156        15.94807         0.34611
C         19.32863        16.70549         0.27231
C         20.56900        18.83223         1.18774
C         19.24247        18.09064         0.89169
C         20.63751        20.32896         1.32700
C         19.58072        21.01462         1.88330
C         20.65276        23.21168         1.48043
C         19.39394        22.47745         1.82592
C         20.57065        24.60625         0.97290
C         19.25274        25.29953         1.15213
C         20.55033        27.62933         1.00586
C         19.26021        26.80331         1.21571
C         20.53831        28.98018         1.73270
C         19.31461        29.68061         1.94752
C         20.52792        31.82199         2.03920
C         19.29153        31.08245         2.07640
C         20.55490        33.24671         2.06855
C         19.26326        33.99583         2.31913
C         20.53184        36.15761         1.77706
C         19.27635        35.38062         1.70752
C         20.59840        37.47724         1.12051
C         19.34285        38.10370         0.79759
C         20.61479        40.09810         0.02113
C         19.34518        39.46373         0.26831
C         20.60400        41.49972        -0.29708
C         19.38929        42.20761        -0.44734
C         20.66277        44.38737        -0.53881
C         19.34968        43.67063        -0.42100
C         20.69894        45.85025        -0.86742
C         19.41801        46.52949        -1.21295
C         20.78021        48.63457        -1.75967
C         19.47740        47.89033        -1.83191
C         20.76850        50.10532        -1.61656
C         19.52739        50.80337        -1.62074
C         20.85023        52.94628        -1.31521
C         19.47002        52.33365        -1.56119
C         20.92000        54.33344        -1.10526
C         19.75362        55.05744        -0.64326
C         21.01581        57.16994        -0.70315
C         19.82498        56.43087        -0.41935
C         21.10508        58.55810        -0.51301
C         23.96610         4.73014        -5.32995
C         22.84727         5.54049        -5.57743
C         24.10106         7.49313        -4.71603
C         22.84462         6.90996        -5.23846
C         24.06788         8.90561        -4.15052
C         22.80320         9.74331        -4.27386
C         23.51985        10.93477        -2.20171
C         22.51398        10.57810        -3.06309
C         23.29386        12.03322        -1.22512
C         22.28983        13.06087        -1.63530
C         23.19252        14.69618        -0.01011
C         22.06169        14.23189        -0.76283
C         23.15700        16.08111         0.41172
C         21.89442        16.82895         0.44710
C         23.10712        18.93143         1.12353
C         21.84305        18.14012         0.82717
C         23.06915        20.36130         0.50613
C         21.84126        21.08664         1.00241
C         23.12379        23.22581         1.10912
C         21.88396        22.45496         1.15306
C         23.12369        24.59927         1.19760
C         21.86460        25.36921         0.99629
C         22.98735        27.47525         1.56522
C         21.83679        26.83595         1.23483
C         23.00107        28.95488         1.61016
C         21.73357        29.67792         1.85782
C         22.98983        31.81881         2.08497
C         21.75928        31.10339         2.02640
C         23.00288        33.22136         1.99067
C         21.77365        33.93824         2.01213
C         23.10440        36.12266         1.67450
C         21.83750        35.43046         2.03605
C         23.07287        37.36204         1.07304
C         21.82273        38.05592         0.77591
C         23.05216        40.03744        -0.17861
C         21.83751        39.39814         0.19540
C         23.05393        41.39811        -0.56753
C         21.86478        42.14056        -0.51885
C         23.11829        44.27261        -1.21719
C         21.84484        43.56519        -0.91545
C         23.16993        45.75085        -1.20861
C         21.98935        46.49238        -1.21901
C         23.24751        48.57240        -1.46911
C         22.02194        47.89687        -1.42542
C         23.25680        50.02357        -1.51666
C         22.02548        50.76382        -1.49372
C         23.32775        52.85861        -1.33335
C         22.05994        52.19868        -1.41034
C         23.38736        54.30057        -1.38201
C         22.15622        55.04305        -1.26661
C         23.35460        57.19556        -1.55910
C         22.16685        56.44592        -1.17210
C         23.47851        58.59961        -1.19193
C         22.32736        59.27642        -0.70337
C         23.63920        61.33132        -0.60858
C         22.42860        60.66463        -0.42587
C         25.09883         5.21639        -4.68151
C         26.26540         7.09615        -3.58136
C         25.18465         6.57856        -4.28613
C         26.22784         8.39554        -2.97539
C         25.04785         9.21752        -3.09379
C         25.87903        10.72025        -1.33403
C         24.82534        10.27731        -2.20276
C         25.76105        11.89189        -0.54745
C         24.45173        12.56075        -0.42342
C         25.61164        14.52956         0.53436
C         24.40855        13.96668         0.03582
C         25.58409        15.94794         0.92930
C         24.33611        16.70144         0.73517
C         25.64526        18.89122         0.60851
C         24.35405        18.17290         0.69693
C         25.63631        20.38516         0.72891
C         24.35913        21.12144         0.82164
C         25.62051        23.17476         1.44654
C         24.38118        22.47295         1.09665
C         25.62749        24.61476         1.68373
C         24.40426        25.40699         1.23000
C         25.48683        27.46088         2.27277
C         24.17159        26.66677         2.08903
C         25.56697        28.91460         1.91707
C         24.27745        29.67590         1.81554
C         25.52487        31.82166         2.06483
C         24.24810        31.04292         2.44630
C         25.31655        33.21219         2.59897
C         24.25407        33.96024         2.20042
C         25.70769        36.02624         1.59223
C         24.38086        35.48798         2.22779
C         25.65203        37.41929         1.03100
C         24.33544        37.93295         0.50817
C         25.59956        39.97492        -0.51990
C         24.31878        39.27129        -0.19190
C         25.58413        41.32058        -1.01279
C         24.26479        42.01334        -1.25454
C         25.56676        44.17826        -1.68718
C         24.39822        43.51710        -0.93277
C         25.64440        45.65393        -1.36523
C         24.43553        46.40268        -1.30560
C         25.73180        48.47977        -1.35660
C         24.46932        47.82694        -1.36813
C         25.77444        49.93422        -1.75194
C         24.49559        50.69617        -1.46819
C         25.82241        52.76148        -1.10652
C         24.52733        52.09676        -1.34390
C         25.86905        54.28134        -1.11211
C         24.61876        54.97107        -1.43983
C         25.97123        57.11502        -1.57781
C         24.69514        56.38574        -1.74338
C         25.94365        58.51282        -1.52057
C         24.73653        59.25784        -1.29876
C         24.78476        60.64694        -1.02085
C         27.27162         8.83192        -2.15530
C         28.23012        10.47956        -0.62529
C         27.16001        10.02739        -1.37774
C         28.14506        11.67810         0.26641
C         26.88984        12.49172         0.06238
C         28.09365        14.44860         1.16516
C         26.83656        13.81249         0.55822
C         28.16700        15.95773         0.96607
C         26.88257        16.68947         1.04763
C         28.03982        18.74245         1.62252
C         26.98611        18.16294         0.66057
C         28.06258        20.26102         1.67895
C         26.88920        21.06160         1.19309
C         28.06468        23.11381         1.97389
C         26.79604        22.46832         1.60089
C         28.07914        24.58971         2.21766
C         26.77050        25.27006         2.08843
C         28.08317        27.45549         2.35071
C         26.78643        26.72796         2.35085
C         28.09584        28.85403         2.44100
C         26.86241        29.63585         2.13691
C         28.16317        31.85188         2.47114
C         26.83304        31.11356         2.45723
C         28.20066        33.28636         2.03414
C         27.23588        34.18045         2.38214
C         28.23123        36.14198         1.35483
C         26.95574        35.46619         1.73375
C         28.22142        37.43852         0.64561
C         26.90071        38.11122         0.51990
C         28.01492        39.77590        -1.06661
C         26.79770        39.28764        -0.37414
C         27.94510        41.13559        -1.77659
C         26.77971        42.00044        -1.32898
C         28.07103        44.13889        -1.48458
C         26.85111        43.41800        -1.46517
C         28.11950        45.55090        -1.37134
C         26.88144        46.30982        -1.29285
C         28.19204        48.43477        -0.86437
C         26.90546        47.74121        -1.22167
C         28.23846        49.89650        -1.22841
C         27.05866        50.62845        -1.36708
C         28.32708        52.74886        -1.25085
C         27.08621        52.03670        -1.29197
C         28.33674        54.18654        -1.31192
C         27.16967        54.95474        -1.34785
C         27.17037        56.36295        -1.50068
C         29.39110        12.53371         0.23157
C         30.68532        14.48541         1.06038
C         29.38148        13.78547         0.71784
C         30.64652        15.99207         0.91495
C         29.35166        16.67209         1.00660
C         30.54669        18.84734         1.13988
C         29.37249        18.11967         1.21509
C         30.61179        20.26419         1.40874
C         29.36649        20.98057         1.73326
C         30.57315        23.21524         1.30045
C         29.30930        22.44969         1.47595
C         30.57791        24.74838         1.39058
C         29.33673        25.34909         2.02820
C         30.55048        27.43643         2.54761
C         29.32732        26.74127         2.27805
C         30.47169        28.77958         2.95429
C         29.30796        29.55695         2.64564
C         30.55581        31.55068         1.43852
C         29.35169        30.96737         2.14655
C         30.58454        33.05572         1.43595
C         29.27933        33.76520         1.08292
C         30.69583        35.86067         0.64302
C         29.45672        35.27842         1.22189
C         30.71886        37.37012         0.48319
C         29.37050        37.95846         0.13100
C         30.60510        39.87246        -1.04631
C         29.33860        39.13013        -0.77743
C         30.56007        41.15221        -1.51829
C         29.29041        41.87434        -1.79365
C         30.63312        44.02269        -1.31354
C         29.33186        43.37362        -1.66723
C         30.66094        45.52796        -1.23622
C         29.37664        46.28142        -1.32492
C         30.75131        48.34814        -0.95536
C         29.42842        47.65210        -1.21910
C         30.69619        49.83920        -1.14429
C         29.50650        50.57755        -1.19090
C         29.52084        52.00418        -1.26046
C         31.78928        16.70369         0.76371
C         33.04355        18.89689         0.94096
C         31.77594        18.19664         0.53946
C         33.05698        20.25778         1.20473
C         31.79782        20.99472         1.31304
C         33.02725        23.11988         1.62296
C         31.83407        22.43954         1.43182
C         33.04722        24.56454         1.88847
C         31.84722        25.29518         1.99475
C         33.08462        27.43118         1.92630
C         31.88192        26.69680         2.57273
C         33.11147        28.68782         1.35807
C         31.92192        29.47351         0.97970
C         33.14272        31.54139         1.51993
C         31.85831        30.82407         1.29786
C         33.17712        33.05335         1.40628
C         31.87534        33.79992         1.32161
C         33.11205        35.66484         0.11133
C         31.85041        35.14177         0.69290
C         33.10478        37.07880        -0.40564
C         31.86530        37.87546        -0.35318
C         33.12130        39.75618        -1.28775
C         31.86902        39.14759        -0.89339
C         33.14020        41.11417        -1.83722
C         31.79981        41.87848        -1.90463
C         33.08093        44.01708        -1.79211
C         31.86314        43.32056        -1.70813
C         33.06626        45.47296        -1.76561
C         31.93210        46.20195        -1.56515
C         31.90331        47.70507        -1.75289
C         34.26739        20.98001         1.40786
C         35.49159        23.07149         1.71972
C         34.27607        22.37192         1.61955
C         35.52440        24.48896         1.80376
C         34.30641        25.21776         1.98710
C         35.59618        27.31141         1.49536
C         34.40364        26.71262         2.20768
C         35.60741        28.68346         1.21979
C         34.37315        29.41679         1.24370
C         35.62659        31.54005         1.10395
C         34.39451        30.81202         1.21733
C         35.62475        32.95835         1.01791
C         34.42215        33.70975         0.96179
C         35.59975        35.76296         0.20856
C         34.40763        35.04040         0.46298
C         35.59615        37.10357        -0.30473
C         34.38673        37.78346        -0.54935
C         35.60705        39.82856        -1.24942
C         34.35236        39.13262        -1.00544
C         35.59128        41.21590        -1.54578
C         34.38252        41.91044        -1.74214
C         34.31258        43.31012        -1.87077
C         36.75809        25.15902         1.61779
C         37.98874        27.20822         0.95415
C         36.80469        26.55948         1.37682
C         38.02456        28.60650         0.74982
C         36.82623        29.36881         0.93471
C         38.07418        31.43907         0.59390
C         36.85290        30.79367         0.89219
C         38.18648        32.90138         0.70591
C         36.90241        33.69607         0.94751
C         38.18834        35.80408         0.05510
C         36.87341        35.15128         0.60284
C         38.04870        37.04683        -0.68220
C         36.84472        37.75947        -0.68465
C         36.80589        39.10586        -1.14337
C         39.20880        29.28701         0.34995
C         40.42517        31.38337        -0.18763
C         39.23040        30.67946         0.24531
C         40.46292        32.73660        -0.31181
C         39.33870        33.57637         0.05969
C         39.33181        34.91623        -0.21395
O         31.15520        33.69235         2.60841
O         24.91636        18.55252        -0.64161
O         20.22947        48.09518        -3.05605
O         19.95234        46.61901         0.14859
O         23.37834        11.71384         0.17925
O         20.19972        23.15283         2.87689
O         24.64404         8.63225        -5.46120
O         21.22161        24.91486        -0.27405
O         26.41219        29.28551         0.77137
O         22.26908        43.77686        -2.32379
O         26.61331        20.91970        -0.24732
O         28.58491        38.77600        -2.00612
O         24.24001        37.99270        -0.95061
O         14.50717        34.28727        -0.22247
O         29.41973        42.73071        -2.97803
O         18.88307        26.13037        -0.00823
O         28.15398        23.60807         3.34507
O         26.30833        33.81526         3.36891
O         12.63735        37.81715         2.46863
O         15.84814        48.73893        -1.77027
O         26.33220        38.40297         1.87694
O         29.74850        22.79806         0.13104
O         29.46620        30.99967         0.61118
O         15.83557        16.31982        -0.49065
O         37.73497        35.94274         1.44981
O         30.68742        44.68984        -0.01327
O         18.28363        15.78941         0.74553
O         23.73458        29.59097         0.46569
O         12.80977        28.08875         3.01437
O         15.34174        32.71730         3.13187
O         16.38429        40.17312         1.71516
O         18.52785        20.32297         2.47886
O         18.27407        27.92250         3.25636
O         19.80755        18.13801         2.22694
O         20.12243        44.15349         0.78382
O         32.42890        41.32540        -3.09870
O         17.13166        50.78246        -1.90675
O         26.03880        27.15356         3.59214
O         23.89726        56.83352        -2.86685
O         32.98576        35.90568        -1.33939
O         21.12326        36.07964         3.14720
O         17.40925        45.85800        -2.53506
O         33.29623        32.37711         2.71170
O         26.15740        16.31796         2.27088
O         13.47651        22.40486         2.10971
O         25.82023        53.54033         0.15154
O         27.47281        31.49509         3.70071
O         23.04564        10.77442        -5.37468
O         15.04971        29.08868         0.45114
O          8.54593        33.45294         2.61391
O         19.94458        14.12028        -4.12757
O         37.82046        33.39455         2.03878
O         22.50524        13.36831        -3.08578
O         28.62408        20.67494         2.96811
O         29.16881        35.93788         2.49704
O         25.84500        49.90107        -3.22752
H         25.08891        49.36541        -3.55093
O         15.61817        37.88617         2.55487
H         16.45990        37.60249         2.96801
O         24.64889        43.60739         0.48661
H         24.81624        44.54560         0.71725
O         24.07806        11.67151        -4.92552
H         23.56875        12.41657        -4.50361
O         11.87983        33.61374        -0.69347
H         12.80948        33.82507        -0.96746
O         27.59964        40.85502        -3.15304
H         28.08849        40.04095        -3.41365
O         24.43736        35.93007         3.60535
H         25.20606        35.48215         4.02540
O         34.73819        26.90203         3.62858
H         34.94224        27.85245         3.75854
O         24.02782        41.83598        -2.67844
H         23.21210        42.35172        -2.90546
O         28.21287        48.44920         0.62982
H         28.08525        47.52146         0.92617
O         23.18092        19.13152         2.55262
H         22.84288        18.33204         3.00863
O         28.07231        11.17414         1.64785
H         28.04150        11.96363         2.23586
O         24.68422        25.86776        -0.11602
H         24.58763        25.11330        -0.73417
O         27.55275        18.22189        -0.66433
H         26.81572        18.36594        -1.29972
O         23.73217        26.21220         3.38378
H         24.50084        26.29401         4.00151
O         14.16778        42.01834        -1.87936
H         14.93354        42.39846        -2.36280
O         10.30421        35.89051        -0.68356
H         10.77990        35.07869        -0.99809
O         30.93611        28.82321         0.34726
H         30.17963        29.45046         0.19297
O         30.59148        25.24365         0.00718
H         30.15704        24.55694        -0.55112
O         28.91873        33.52752        -0.28800
H         28.82723        32.55222        -0.40471
O         32.21568        26.54039         3.97663
H         32.28294        27.43853         4.36712
O         31.75126        48.01034        -3.14725
H         30.92837        47.58992        -3.47226
O         28.00023        14.24382         2.61021
H         27.30295        14.86916         2.93191
O         24.24156        30.81910         3.87201
H         24.21109        31.68455         4.33197
O         31.65494        18.39097        -0.92070
H         30.73982        18.13955        -1.17180
O         31.02334        37.85881         1.83697
H         30.43169        37.36130         2.45755
O         31.06357        48.15532         0.45836
H         30.25979        48.43265         0.95841
O         17.97205        41.17881        -2.08204
H         18.76864        40.66804        -2.34397
O         31.77902        13.93199         0.33071
H         31.68877        14.19173        -0.60866
O         19.19816        34.21054         3.76798
H         19.90942        34.86423         3.98426
O         20.65132        15.21654         1.59909
H         19.71884        14.94276         1.75990
O         11.96029        40.27520         2.56988
H         12.49726        39.62158         3.07799
O         11.23214        21.54754         1.29110
H         11.93794        21.40240         1.96931
O         19.07829        52.78070        -2.89220
H         19.72961        52.43209        -3.53594
O         20.47749        10.67783        -1.78212
H         20.33843         9.71838        -1.92675
O         25.55332        31.96016         0.62491
H         25.60690        31.05249         0.23508
O         25.30250        44.11900        -3.11173
H         25.20366        43.16461        -3.35339
O         14.22501        37.69080        -0.84591
H         15.07827        37.89954        -1.30373
O          9.52684        35.85955         2.88441
H          8.96976        35.25174         3.42158
O         20.52504        28.01524        -0.39275
H         21.41063        28.36083        -0.63297
O         16.81311        37.68656        -0.96390
H         16.93366        36.71546        -1.04369
O         27.70283        18.28523         2.94464
H         28.17606        18.86945         3.58075
O         31.54151        29.34034         3.58981
H         31.38684        30.29209         3.76222
O         22.92125        20.26715        -0.92515
H         23.71742        19.79619        -1.27428
O         15.47037        27.34719         3.64788
H         15.44457        26.41765         3.95626
H          4.83807        31.32890        -0.11523
H          4.80866        33.77520         0.11166
H          7.31831        27.03571        -0.10176
H          6.05632        29.16248        -0.04375
H          6.04097        35.87521         0.35170
H          7.25932        37.98630         0.34089
H          9.82087        22.91186        -0.56670
H          8.57121        24.94623        -0.25267
H          8.48120        40.17039         0.39195
H          9.74947        42.32876         0.16765
H         12.92159        19.38361        -2.38148
H         11.42851        21.14905        -1.51987
H         11.06975        44.47711         0.26246
H         12.46697        46.54723         0.43877
H         15.64101        15.34779        -3.61536
H         14.39515        17.58452        -3.18110
H         13.94807        48.38572         0.98995
H         15.26575        50.69540         0.95167
H         18.38873        11.49833        -5.10115
H         16.79117        13.30323        -4.02311
H         16.77981        52.78045         0.77487
H         17.83208        54.78309         0.34158
H         20.76303         7.22416        -5.69368
H         19.52635         9.27963        -5.36681
H         18.95170        56.96218        -0.01334
H         20.21907        59.10955        -0.16484
H         23.92564         3.66898        -5.61342
H         21.94138         5.09710        -6.01536
H         23.70104        62.40811        -0.39706
H         21.54508        61.20954        -0.06452
H         25.93118         4.53796        -4.44569
H         27.12708         6.44774        -3.36213
H         26.89855        59.05832        -1.47457
H         25.74156        61.18107        -1.10900
H         28.19521         8.23829        -2.08659
H         29.17097         9.90804        -0.62680
H         29.30962        54.69239        -1.40263
H         28.13314        56.89554        -1.51917
H         30.35323        12.05688        -0.01566
H         30.87936        14.26057         2.14693
H         31.65333        50.38221        -1.10572
H         30.48817        52.52732        -1.27389
H         32.74880        16.16976         0.67828
H         33.99274        18.34131         0.89897
H         34.01200        45.99416        -1.97945
H         32.87494        48.14968        -1.42591
H         35.22581        20.44303         1.35023
H         36.43953        22.51899         1.64068
H         36.54358        41.76555        -1.58697
H         35.24931        43.88721        -1.88660
H         37.67685        24.56376         1.51098
H         38.90633        26.61797         0.81522
H         38.92188        37.45260        -1.21510
H         37.75586        39.60694        -1.38147
H         40.12100        28.70898         0.14136
H         41.30548        30.78263        -0.45922
H         41.36859        33.23136        -0.69263
H         40.18654        35.35268        -0.75470
