         324
 CSIRO Nanostructure Databank - Neutral Graphene Oxide Data Set
C          1.33412         1.99597        -0.87874
C          1.20291         3.32907        -0.60548
C          2.54807         1.30215        -0.63356
C          2.27948         4.07366         0.13993
C          1.28917         6.24938        -0.69205
C          1.35424         7.64723        -0.93925
C          2.34959         5.56102        -0.12412
C          2.37317         8.42755        -0.43829
C          1.30282        10.53144        -1.19576
C          1.31955        11.89809        -1.44416
C          2.40924         9.86652        -0.62785
C          2.44369        12.67092        -1.11636
C          1.29996        14.92709        -1.72158
C          1.34782        16.28419        -1.74121
C          2.51178        14.10416        -1.53596
C          2.58460        17.03273        -1.58909
C          2.57607        18.48026        -1.48541
C          3.69835         1.99534        -0.20949
C          3.63245         3.41389         0.02375
C          4.94213         1.32365        -0.06831
C          4.79001         4.14783         0.27819
C          3.53162         6.28091         0.24286
C          3.36613         7.77397         0.49856
C          4.74812         5.59675         0.44571
C          4.68341         8.53680         0.61510
C          3.55476        10.63679        -0.25308
C          3.55367        12.03481        -0.51112
C          4.74733         9.97460         0.25383
C          4.68336        12.83402         0.01512
C          3.78046        14.86965        -1.27804
C          3.76012        16.34527        -1.35611
C          4.79898        14.28736        -0.34875
C          5.04938        17.04382        -1.35391
C          3.70330        19.20273        -1.24103
C          5.03621        18.58350        -1.29883
C          6.10750         2.02025         0.26165
C          6.05170         3.46358         0.40065
C          7.35093         1.33460         0.39485
C          7.21417         4.18545         0.67754
C          5.98316         6.30157         0.63011
C          5.98486         7.77966         0.73402
C          7.20865         5.61910         0.71240
C          7.24870         8.49959         0.46290
C          5.95740        10.64484         0.42459
C          5.92972        12.12301         0.49001
C          7.23246         9.94474         0.47110
C          7.20877        12.89348         0.69172
C          6.11106        15.01375        -0.18570
C          6.28265        16.30954        -0.92066
C          7.31072        14.30948         0.30005
C          7.51403        17.11000        -0.57651
C          6.23533        19.25728        -0.78290
C          7.42997        18.59826        -0.52130
C          8.52996         2.00623         0.72201
C          8.45292         3.45835         0.98715
C          9.78251         1.35673         0.79479
C          9.75113         4.25036         1.02398
C          8.46876         6.35085         0.68099
C          8.43622         7.77109         0.42638
C          9.70526         5.69418         0.72292
C          9.68395         8.44570         0.05223
C          8.44526        10.65849         0.49580
C          8.49087        12.09385         0.84931
C          9.67884         9.99009         0.07396
C          9.84065        12.80791         0.90478
C          8.54253        15.01561         0.40008
C          8.56513        16.42652         0.18700
C          9.78154        14.30285         0.63919
C          9.73738        17.21674         0.53619
C          8.59108        19.31982        -0.12101
C          9.79955        18.67535         0.22992
C         11.00682         2.05846         0.87436
C         11.00646         3.50580         0.85289
C         12.24062         1.35491         0.80405
C         12.18579         4.22294         0.68270
C         10.95726         6.38037         0.49484
C         10.97953         7.77371         0.20270
C         12.16977         5.63676         0.48530
C         12.20247         8.50496         0.02185
C         10.99319        10.66469         0.10545
C         10.93891        12.13894         0.09267
C         12.18534         9.97510        -0.06071
C         12.23440        12.89706        -0.03637
C         11.00382        14.97197         0.59542
C         11.02237        16.44039         0.71941
C         12.26240        14.30143         0.44122
C         12.29951        17.14877         0.42353
C         11.00032        19.36663         0.40171
C         12.29945        18.67650         0.37256
C         13.48101         2.02047         0.79539
C         13.46183         3.49857         0.89596
C         14.70993         1.35616         0.66277
C         14.75221         4.23239         0.80769
C         13.39130         6.33600         0.07976
C         13.41207         7.79055        -0.01897
C         14.75880         5.61431         0.23626
C         14.71410         8.43447        -0.30306
C         13.44493        10.71890        -0.17186
C         13.47090        12.09876        -0.13253
C         14.72150         9.96298        -0.36540
C         14.73367        12.87365        -0.19077
C         13.47217        14.99549         0.62972
C         13.51216        16.40390         0.76908
C         14.75288        14.31090         0.27105
C         14.73553        17.16496         0.98575
C         13.57400        19.34375         0.62624
C         14.76990        18.63352         0.75441
C         15.96610         2.03801         0.57740
C         16.00812         3.47247         0.64295
C         17.18573         1.35064         0.42533
C         17.19736         4.18355         0.60363
C         15.97271         6.39253         0.38211
C         15.99312         7.75261         0.06937
C         17.17999         5.66873         0.93352
C         17.21073         8.49924         0.15521
C         16.00913        10.63640        -0.12673
C         16.02895        12.10779        -0.28244
C         17.20238         9.92514        -0.00201
C         17.31028        12.84895        -0.06658
C         16.03999        14.86383         0.88847
C         16.07418        16.39557         0.99763
C         17.29856        14.27543         0.29291
C         17.24911        17.15386         0.61136
C         16.03462        19.27987         0.78157
C         17.26177        18.57492         0.66830
C         18.41639         2.04654         0.35451
C         18.42968         3.48042         0.45912
C         19.65455         1.36119         0.21281
C         19.66335         4.18565         0.43735
C         18.46139         6.36775         0.57945
C         18.45807         7.79655         0.44079
C         19.66775         5.63048         0.51007
C         19.66575         8.48149         0.63226
C         18.50503        10.65332        -0.04370
C         18.55972        12.10682         0.13110
C         19.79659         9.90832         0.30538
C         19.75423        12.78881         0.29321
C         18.48827        14.94831         0.32040
C         18.45451        16.42622         0.23314
C         19.76446        14.24931         0.29404
C         19.74025        17.18266         0.16604
C         18.51779        19.28845         0.56459
C         19.74106        18.64667         0.39735
C         20.87345         2.04784         0.19470
C         20.88864         3.48330         0.31944
C         22.12106         1.36413         0.02070
C         22.13371         4.18255         0.31961
C         20.91405         6.30323         0.52234
C         20.89547         7.72522         0.87685
C         22.15048         5.60575         0.46655
C         22.19704         8.46185         1.04017
C         20.97194        10.69075         0.73001
C         20.97463        12.06111         0.59158
C         22.21940         9.98039         1.26758
C         22.18414        12.85957         0.95125
C         20.95925        14.95635         0.39015
C         21.00094        16.45685         0.55836
C         22.21711        14.29454         0.59643
C         22.17201        17.09434        -0.18599
C         21.01434        19.29222         0.32400
C         22.21109        18.59357         0.07140
C         23.33133         2.03753         0.00891
C         23.36705         3.47971         0.19850
C         24.55777         1.34910        -0.31179
C         24.59145         4.17780         0.21609
C         23.39868         6.29952         0.46922
C         23.40632         7.77684         0.49328
C         24.61704         5.60151         0.31565
C         24.72769         8.53875         0.46093
C         23.45598        10.69790         0.65638
C         23.47117        12.11832         1.19161
C         24.77013         9.96460         0.81868
C         24.77742        12.84000         1.19842
C         23.42858        14.98693         0.49441
C         23.46974        16.38385         0.12981
C         24.71290        14.33204         0.84171
C         24.65526        17.06592        -0.06548
C         23.45603        19.23609        -0.04943
C         24.67834        18.51619        -0.19412
C         25.76810         1.99673        -0.31740
C         25.87834         3.37754         0.28574
C         26.96192         1.36521        -0.80376
C         27.05707         4.15115        -0.24030
C         25.87858         6.33921         0.31648
C         25.95748         7.72584         0.43279
C         27.12726         5.57432         0.17129
C         27.20266         8.45267         0.37817
C         25.99209        10.66464         0.92962
C         26.03361        12.08103         1.04548
C         27.25576         9.87802         0.80013
C         27.28722        12.87782         1.07922
C         25.97017        14.94844         0.41461
C         25.92494        16.31140        -0.13773
C         27.17105        14.33764         0.75052
C         27.21605        17.08639        -0.28853
C         25.90620        19.20761        -0.28069
C         27.17175        18.56484        -0.25591
C         28.11383         2.08405        -1.05348
C         28.12183         3.52587        -0.82408
C         29.33426         1.42858        -1.49141
C         29.26536         4.31901        -1.33175
C         28.40458         6.35084        -0.09629
C         28.37688         7.81955        -0.01713
C         29.45616         5.70454        -0.89729
C         29.54871         8.55455        -0.43666
C         28.57841        10.62509         0.58639
C         28.64077        12.12398         0.77947
C         29.60221         9.96515        -0.26230
C         29.82294        12.81104         0.18356
C         28.32593        15.18950         0.80172
C         28.43983        16.43531         0.20919
C         30.12673        14.14361         0.51487
C         29.70083        17.13113         0.08053
C         28.38529        19.24065        -0.13743
C         29.64661        18.55325        -0.09120
C         30.46154         2.10340        -1.82407
C         30.48056         3.57846        -1.90301
C         31.73139         4.33931        -1.93921
C         30.57246         6.42059        -1.30066
C         30.60907         7.87167        -1.10858
C         31.72931         5.69225        -1.78325
C         31.63863         8.63914        -1.68085
C         30.62695        10.71476        -0.89130
C         30.70434        12.16825        -0.71953
C         31.62841        10.02497        -1.60445
C         31.70306        12.94719        -1.35228
C         31.01127        14.97245        -0.20064
C         30.95020        16.44319        -0.05614
C         31.82148        14.32176        -1.15229
C         32.11605        17.20462        -0.24080
C         30.85610        19.27518        -0.21753
C         32.07278        18.60459        -0.27350
O         28.25688        12.52646         2.10981
O         10.29649        16.93349         1.88154
O         29.44684         4.13640        -2.78049
O         15.44322        16.83069         2.24771
O         14.12719         4.05464         2.11651
O         16.80121        12.55650        -1.44663
O          3.57452        14.23221        -2.57380
O         11.29247        12.73587        -1.17680
O         29.41576        14.74221         1.56351
O          4.90258        12.59533         1.43399
O          9.04712         3.87012         2.26284
O         26.59301        16.45313        -1.45606
O         23.88626         8.32518        -0.78235
O         21.61685         7.83054         2.21812
O         14.74160        13.99851        -1.14313
O         14.74258         9.14065        -1.58317
O          5.26445        17.84048        -2.54797
O          7.34752        16.40588        -1.88707
O         24.81734        13.86349         2.23450
O         28.26593         9.98645         1.85701
O         22.64757        12.51125         2.30806
O         28.13611         5.74459         1.23465
O          7.73089        12.51460         2.02833
O         14.09961         5.68508        -1.05797
O          5.28860         8.29167         1.93652
O         19.39909        10.16589        -1.09438
O         19.09004        16.81272        -1.06922
O          9.53614         9.22658        -1.17592
O         12.36528        17.80563        -0.87351
O          5.00726        15.14832         0.80693
O         16.03678        14.33480         2.25011
H         15.74813        15.07365         2.83989
O         22.31357        10.15795         2.68906
H         21.80826         9.42766         3.11523
O         17.07746         5.75008         2.40137
H         17.81658         5.22988         2.78212
O         21.16305        16.71352         1.97752
H         21.91013        16.16995         2.30837
O         26.13966         3.16567         1.71748
H         26.54316         3.98696         2.07374
O          2.73310         7.85611         1.81387
H          3.45970         7.77526         2.47498
O          1.90819         3.95380         1.56706
H          1.91065         2.99765         1.78613
O         10.30607        12.64310         2.27775
H          9.54037        12.85620         2.86013
O         21.93374        16.89582        -1.60016
H         22.66863        17.31066        -2.09788
O         23.25246        10.88245        -0.77053
H         23.37104         9.99999        -1.20495
H          0.48893         1.44233        -1.31361
H          0.22720         3.80976        -0.76032
H          2.61148         0.22469        -0.83952
H          0.39600         5.71419        -1.03933
H          0.55781         8.08712        -1.55489
H          0.39810         9.96887        -1.45829
H          0.44279        12.37069        -1.90683
H          0.32388        14.42281        -1.77036
H          0.41492        16.85565        -1.85718
H          1.59901        18.98576        -1.49932
H          4.98462         0.23577        -0.22605
H          3.63357        20.27708        -1.01459
H          7.37679         0.24862         0.21988
H          6.18488        20.34422        -0.61681
H          9.81210         0.26171         0.68957
H          8.57433        20.41770        -0.19194
H         12.21892         0.25669         0.73969
H         10.99740        20.46635         0.35237
H         14.71058         0.25741         0.59836
H         13.59651        20.44360         0.66127
H         17.18714         0.25166         0.37517
H         16.05771        20.37936         0.74329
H         19.65050         0.26477         0.12086
H         18.49158        20.38454         0.66437
H         22.10765         0.27379        -0.12759
H         21.05957        20.38649         0.44593
H         24.49456         0.30277        -0.64910
H         23.50247        20.33433         0.01932
H         26.92721         0.29172        -1.04597
H         25.88221        20.30839        -0.29207
H         29.33853         0.32808        -1.49707
H         28.39073        20.34144        -0.12724
H         31.38333         1.55666        -2.07293
H         32.67494         3.80191        -2.11492
H         32.68106         6.23241        -1.88272
H         32.45250         8.14929        -2.23095
H         32.44247        10.57944        -2.08798
H         32.38138        12.47509        -2.07460
H         32.54469        14.89603        -1.74817
H         33.08240        16.69206        -0.34873
H         30.82313        20.37051        -0.30612
H         33.00660        19.17288        -0.38464
