         349
 CSIRO Nanostructure Databank - Neutral Graphene Oxide Data Set
C          1.27955         3.55049         1.56737
C          0.17520         4.28872         1.18025
C          1.21881         6.23531        -0.04169
C          0.13247         5.50513         0.42708
C          1.13956         7.68804        -0.51542
C          0.00510         8.47614         0.10563
C          1.17669        10.51867        -0.58132
C          0.03144         9.81485         0.11017
C          1.22945        12.02120        -0.42744
C          0.03729        12.77205        -0.82987
C          1.10534        14.84273         0.01818
C         -0.06315        14.09820        -0.60588
C          1.11914        16.34585        -0.21643
C         -0.06827        17.07599        -0.33810
C          1.14414        19.20253        -0.34123
C         -0.05849        18.46840        -0.41517
C          1.13810        20.66567        -0.40269
C         -0.03389        21.40601        -0.58566
C          1.13570        23.55531        -0.48964
C         -0.03659        22.81449        -0.61603
C          1.14314        25.02721        -0.41371
C         -0.06131        25.80246        -0.29438
C          1.16231        27.92879        -0.19217
C         -0.03688        27.19720        -0.23851
C          1.21783        29.34970        -0.04599
C          3.84033         3.53417         1.43988
C          2.56018         3.73050         0.95778
C          3.73268         6.23216        -0.02126
C          2.49390         5.60210        -0.13947
C          3.75653         7.67997        -0.48265
C          2.45889         8.42610        -0.29701
C          3.68499        10.52806         0.09475
C          2.47238         9.79398        -0.24396
C          3.51238        11.97111         0.56374
C          2.37763        12.68829        -0.13840
C          3.62781        14.92373         0.00194
C          2.40419        14.17769        -0.46639
C          3.58286        16.32344         0.05043
C          2.35103        17.05078        -0.13457
C          3.62109        19.20532        -0.11100
C          2.36261        18.48268        -0.18934
C          3.58109        20.64721        -0.15404
C          2.38059        21.37659        -0.26838
C          3.58577        23.54502        -0.34108
C          2.38103        22.83380        -0.33604
C          3.61319        24.98884        -0.64162
C          2.34991        25.71714        -0.46375
C          3.67463        27.90593        -0.52521
C          2.44229        27.16037        -0.03711
C          3.68385        29.42120        -0.36322
C          2.39718        30.05356        -0.01785
C          6.25688         3.61252         1.09904
C          4.99250         4.19595         0.86954
C          6.16726         6.25365         0.17050
C          4.93269         5.51885         0.26955
C          6.14010         7.70165         0.10425
C          4.96960         8.42808        -0.00760
C          6.11815        10.52220         0.83551
C          4.87715         9.85350         0.25359
C          6.13370        12.05063         0.69352
C          4.81399        12.78522         0.58384
C          6.08622        14.92347         0.23916
C          4.83129        14.21205         0.20980
C          6.07536        16.30961         0.19954
C          4.81021        17.06860         0.49477
C          6.10232        19.22000         0.08254
C          4.83303        18.52373         0.08989
C          6.09563        20.62877         0.03325
C          4.83041        21.35640         0.10825
C          6.11613        23.61627        -0.14385
C          4.83592        22.89686         0.01596
C          6.15548        24.99275        -0.22423
C          4.92463        25.74283        -0.52823
C          6.15537        27.88252        -0.20150
C          4.96076        27.20736        -0.36330
C          6.17492        29.34172        -0.08944
C          4.97408        30.05674        -0.10141
C          8.73264         3.61283         0.91563
C          7.46653         4.23943         0.72794
C          8.64982         6.31269         0.00691
C          7.41197         5.60737         0.30797
C          8.65100         7.67316        -0.09186
C          7.43387         8.37584         0.49342
C          8.66476        10.57061         0.51836
C          7.34458         9.87990         0.15914
C          8.60316        12.05362         0.20104
C          7.37081        12.74802         0.29313
C          8.54273        14.85062        -0.11397
C          7.35779        14.17470         0.17871
C          8.49318        16.29087        -0.33678
C          7.37802        17.04060         0.35449
C          8.58861        19.18473        -0.13071
C          7.34549        18.51521         0.05276
C          8.65968        20.64911         0.05810
C          7.32058        21.39692         0.19342
C          8.61895        23.52932         0.00061
C          7.35840        22.80764        -0.36466
C          8.57883        24.96048         0.28187
C          7.37045        25.73710        -0.02967
C          8.64442        27.86012         0.09036
C          7.40110        27.14103        -0.04108
C          8.65794        29.30420         0.13456
C          7.42885        30.00167         0.08453
C         11.17921         3.65766         0.89454
C          9.94501         4.21639         0.53063
C         11.18104         6.21785        -0.57192
C          9.89146         5.51988        -0.20022
C         11.18725         7.73086        -0.61598
C          9.87118         8.42779        -0.45243
C         11.09763        10.65743        -0.10877
C          9.83582         9.91606        -0.21318
C         11.05775        12.02271         0.05264
C          9.80732        12.72467        -0.00328
C         11.09484        14.90203        -0.25633
C          9.80364        14.12916        -0.53245
C         11.04772        16.30255        -0.42748
C          9.79179        17.02912        -0.58366
C         10.97469        19.20797        -0.87469
C          9.77695        18.49898        -0.42588
C         11.03434        20.75162        -0.77994
C          9.84626        21.42629        -0.27373
C         11.07870        23.58243        -0.11938
C          9.84092        22.84569        -0.05872
C         11.12271        24.97097        -0.04036
C          9.90504        25.71865         0.29256
C         11.11933        27.85741         0.14969
C          9.88057        27.17666         0.11968
C         11.13991        29.28820         0.30347
C          9.90526        29.97718         0.27724
C         13.66498         3.70976         0.94445
C         12.42599         4.27474         0.57362
C         13.65780         5.87650        -0.72923
C         12.43366         5.46781        -0.23024
C         13.62900         7.97727        -1.06855
C         12.32313         8.50766        -0.72792
C         13.58865        10.57161         0.05297
C         12.34620        10.02173        -0.63779
C         13.62424        12.05759         0.29354
C         12.30613        12.79439         0.26761
C         13.60286        14.93845         0.43194
C         12.29465        14.24382         0.04604
C         13.55590        16.43913         0.12265
C         12.26559        17.10893        -0.22579
C         13.55007        19.25993        -0.90045
C         12.27899        18.47004        -0.86607
C         13.54068        20.74435        -0.86138
C         12.34768        21.40698        -0.65381
C         13.48526        23.56410        -0.84005
C         12.37558        22.83025        -0.11195
C         13.58089        25.04074        -0.50880
C         12.33291        25.73238        -0.19316
C         13.59548        27.77049         0.39546
C         12.34884        27.11695         0.06890
C         13.60231        29.20813         0.64142
C         12.39750        29.93168         0.51959
C         16.14064         3.82977         1.12104
C         14.91075         4.33096         0.64120
C         16.09958         6.30256        -0.36475
C         14.92328         5.51336        -0.18407
C         16.08140         7.73588        -0.67826
C         14.84324         8.49846        -0.68968
C         16.14036        10.62411        -0.23198
C         14.87838         9.86210        -0.12236
C         16.10430        12.07901        -0.22149
C         14.89044        12.79036         0.01298
C         16.03813        14.88703        -0.41948
C         14.85622        14.19759        -0.05719
C         15.93087        16.31713        -0.79509
C         14.85079        17.15386        -0.18076
C         16.02881        19.25855        -1.07985
C         14.83462        18.61252        -0.47997
C         16.18102        20.77111        -1.00767
C         14.82160        21.43837        -0.68154
C         15.69704        23.45997         0.35298
C         14.74978        22.80419        -0.49163
C         15.96867        24.79204         0.47102
C         14.88595        25.69288        -0.00284
C         15.92559        27.60475         1.25495
C         14.74610        27.01532         0.59940
C         16.03610        29.07999         1.13880
C         14.85500        29.82746         0.89681
C         18.60347         3.95901         1.25312
C         17.34608         4.49350         0.82651
C         18.56458         6.41216        -0.11568
C         17.33456         5.74235         0.11375
C         18.52439         7.66388        -0.95799
C         17.28159         8.47309        -0.63807
C         18.61597        10.63243        -0.25638
C         17.30484         9.90253        -0.48666
C         18.55656        12.09342        -0.66436
C         17.29425        12.80469        -0.53795
C         18.48019        14.98731        -1.09550
C         17.25076        14.21541        -0.66695
C         18.33056        16.32048        -1.89607
C         16.99700        16.99160        -1.59023
C         18.92398        19.29037        -1.04410
C         16.96416        18.47160        -1.64040
C         18.77491        20.52117        -0.35949
C         17.46592        21.19320        -0.20578
C         18.57482        22.99482         1.22166
C         17.43735        22.16026         0.75985
C         18.44218        24.49564         1.22736
C         17.06854        25.19196         1.48687
C         18.44635        27.42926         1.50420
C         17.14373        26.73975         1.56513
C         18.47111        28.85743         1.53770
C         17.28133        29.64790         1.40294
C         19.78413         4.59981         0.96183
C         21.03494         6.47894        -0.12901
C         19.78429         5.83976         0.25542
C         21.07059         7.67391        -0.76331
C         19.83323         8.45030        -0.98886
C         21.08749        10.75098        -0.69314
C         19.84329         9.94637        -0.82591
C         20.99821        12.08989        -0.87731
C         19.71133        12.75102        -1.01500
C         20.83951        14.89613        -1.89517
C         19.57146        14.08762        -1.72420
C         20.81940        16.21521        -1.66053
C         19.56265        16.81717        -1.07615
C         20.74742        18.61935         0.32978
C         19.75094        18.24916        -0.59392
C         20.87185        19.95728         0.73792
C         19.87225        20.90520         0.46151
C         21.03379        23.20832         0.76233
C         19.90957        22.30401         1.02566
C         20.88307        24.54830         0.91942
C         19.62161        25.21692         1.22505
C         20.86682        27.38692         1.49356
C         19.64784        26.68759         1.39910
C         20.89908        28.78038         1.62530
C         19.72372        29.51568         1.61888
O         13.03487        18.58351        -2.10538
O         14.14921         9.87030         1.19532
O         15.86041        16.39235        -2.29688
O          8.87072        16.64193        -1.71067
O         12.78485        17.14136         1.15872
O         16.24773        27.19516         2.64241
O          4.76792        22.21022         1.32436
O         13.64547         6.78069        -1.79581
O          8.10361        21.10797         1.36476
O         12.96089        12.39813         1.54297
O         18.11919        19.05801        -2.18398
O          9.25177        25.31228         1.54277
O         14.50584        25.70730        -1.42820
O         15.13813        18.13356         0.87359
O         10.79334        20.04245        -2.05048
O         19.31902        22.43226         2.35711
O          9.61079         9.40029        -1.57546
O         19.78951         9.34642        -2.16132
O         19.12792        15.82120        -0.01046
O          4.37569        25.35890        -1.86421
O         10.36420         5.53258        -1.58996
O          5.51740        12.66007         1.88707
O         16.23600        22.57767         1.29032
O          2.48937         4.22080        -0.36552
O          3.57110        28.72814        -1.69640
O          0.93212         7.63377        -1.96567
H          1.79854         7.37869        -2.36203
O         18.33490         7.18051        -2.32489
H         18.57502         7.92943        -2.91708
O          7.07998        10.04442        -1.24539
H          7.89176         9.77392        -1.74609
O          7.38251        22.57009        -1.82625
H          7.32927        23.43829        -2.28058
O          7.70586        16.94784         1.78712
H          6.91390        17.27372         2.27568
O          2.46032        14.27545        -1.91488
H          1.77060        13.68352        -2.28558
O          1.05578        14.64278         1.46312
H          0.25773        15.09937         1.80276
O         12.77716        22.73781         1.28527
H         12.00975        22.43182         1.81317
O         18.82704        10.57659         1.19149
H         18.08272        11.04795         1.62322
O         16.44055        21.26198        -2.34871
H         17.15404        20.69883        -2.72976
O          2.68438        27.07058         1.42778
H          1.89575        26.64751         1.83101
O          4.76249        17.10990         1.99409
H          4.61581        16.18724         2.29821
O         16.67716        24.70762         2.78077
H         16.20089        25.44124         3.23614
O          7.60317         8.15096         1.91781
H          6.86785         8.60874         2.38915
O         18.51168        16.29793        -3.30938
H         17.62166        16.29359        -3.72408
O          9.72354        14.00962        -1.99786
H          9.46593        14.90443        -2.33331
O         19.13134        13.71027        -3.05559
H         19.06504        14.54345        -3.58146
O          8.94676        10.42331         1.92330
H          8.10186        10.52913         2.41906
O          6.13338        10.25791         2.26110
H          5.57607        10.96980         2.66828
O          0.97244        10.36517        -2.01841
H          0.86664         9.39381        -2.20380
O         12.46810        10.49994        -2.01790
H         11.63761        10.25420        -2.48442
O         13.70298        14.84274         1.87669
H         13.13818        15.55732         2.25124
O          3.06643        11.84670         1.95110
H          2.70941        12.71849         2.22782
O          3.87214         7.57068        -1.96278
H          4.81077         7.36956        -2.17136
O         13.23085        23.45921        -2.25101
H         13.87393        24.04403        -2.70756
H          1.17031         2.82304         2.38568
H         -0.78320         4.01080         1.64731
H         -0.85873         5.98314         0.39621
H         -0.83686         7.93887         0.56582
H         -0.78777        10.39836         0.55718
H         -0.80592        12.20958        -1.25678
H         -0.99986        14.62508        -0.84052
H         -1.03680        16.55697        -0.37057
H         -1.01981        18.98845        -0.51860
H         -0.99929        20.89513        -0.70099
H         -1.00063        23.32586        -0.74592
H         -1.03474        25.29369        -0.29214
H         -0.99167        27.74477        -0.23625
H          0.26902        29.89074         0.09487
H          4.00088         2.91341         2.33441
H          2.38549        31.13341         0.19260
H          6.29774         2.60820         1.54682
H          4.98665        31.12876         0.14953
H          8.76529         2.62754         1.40584
H          7.43718        31.10041         0.14993
H         11.18702         2.71570         1.46388
H          9.90307        31.07330         0.37877
H         13.67095         2.77597         1.52608
H         12.41669        31.02434         0.65158
H         16.15759         2.91342         1.72937
H         14.90992        30.92630         0.93391
H         18.61223         3.00474         1.79969
H         17.38415        30.74359         1.42252
H         20.74423         4.16056         1.26918
H         21.97095         5.94110         0.08303
H         22.03109         8.11828        -1.06092
H         22.06669        10.25479        -0.63349
H         21.90953        12.70471        -0.91493
H         21.72552        14.40832        -2.32802
H         21.69558        16.85325        -1.84860
H         21.44897        17.86541         0.71138
H         21.71080        20.24224         1.38807
H         21.98629        22.79622         0.39768
H         21.75968        25.17739         0.71594
H         21.82357        26.85048         1.49316
H         21.86790        29.29190         1.70901
H         19.75221        30.61329         1.67098
