         324
 CSIRO Nanostructure Databank - Neutral Graphene Oxide Data Set
C          1.32477         1.87796        -0.11761
C          1.30846         3.24269        -0.43451
C          2.49669         1.26535         0.30855
C          2.47033         4.01785        -0.29799
C          1.32040         6.26953        -0.82454
C          1.39332         7.60055        -1.16150
C          2.50808         5.43281        -0.77859
C          2.62441         8.31391        -1.26474
C          1.43539        10.56813        -1.77227
C          1.51999        11.90225        -2.10624
C          2.64532         9.74430        -1.68907
C          2.73390        12.63946        -2.09733
C          1.52075        14.90279        -2.46221
C          1.52863        16.26258        -2.40332
C          2.79330        14.07522        -2.60006
C          2.75127        17.03339        -2.38757
C          2.82887        18.42326        -2.44801
C          3.68394         2.01925         0.46980
C          3.65474         3.40948         0.16623
C          4.91614         1.36632         0.82494
C          4.83738         4.22838         0.50732
C          3.84860         6.22241        -0.69948
C          3.82122         7.68567        -0.87732
C          4.97974         5.60954         0.00327
C          5.03970         8.39416        -0.66051
C          3.95554        10.51395        -1.60690
C          3.91081        11.99800        -1.60061
C          5.23673         9.81171        -1.16954
C          4.97389        12.73306        -1.05357
C          3.90824        14.83197        -1.94007
C          3.99209        16.26511        -2.24738
C          4.90984        14.19180        -1.13209
C          5.27049        17.02062        -2.00243
C          4.04241        19.13421        -2.29085
C          5.25932        18.49553        -1.99793
C          6.11154         2.05502         1.00231
C          6.06320         3.53584         1.05077
C          7.36717         1.38493         1.06916
C          7.34965         4.30285         1.10758
C          6.14125         6.34810         0.21919
C          6.16634         7.75257        -0.13178
C          7.37322         5.71003         0.65058
C          7.37708         8.50170         0.12698
C          6.09261        10.60122        -0.19643
C          6.01248        12.09859        -0.20899
C          7.37242         9.91900         0.13564
C          7.24194        12.87318         0.20156
C          6.22113        14.99437        -0.78623
C          6.39814        16.34522        -1.34347
C          7.41889        14.25023        -0.33707
C          7.58817        17.01839        -1.20936
C          6.49050        19.15388        -1.76593
C          7.67817        18.44513        -1.46811
C          8.60211         2.05271         1.08641
C          8.64181         3.53502         1.16460
C          9.83276         1.37359         1.03368
C          9.89317         4.23610         0.82548
C          8.58686         6.37901         0.57204
C          8.59271         7.81488         0.37276
C          9.87008         5.67720         0.67320
C          9.79174         8.54519         0.46888
C          8.53759        10.63257         0.44096
C          8.51565        12.10216         0.53642
C          9.78873         9.95485         0.56496
C          9.81348        12.79947         0.53804
C          8.62040        14.89278        -0.26140
C          8.79442        16.24820        -0.84045
C          9.77387        14.26519         0.43175
C         10.09481        16.98932        -0.71908
C          8.92312        19.11446        -1.27769
C         10.10127        18.46176        -0.88705
C         11.06856         2.06518         0.94598
C         11.08439         3.50968         0.78142
C         12.29211         1.37874         0.97376
C         12.34801         4.16938         0.63281
C         11.05495         6.36230         0.49970
C         11.08999         7.84339         0.22777
C         12.36622         5.64384         0.31230
C         12.27524         8.55161         0.83961
C         11.01991        10.67446         0.82064
C         11.00251        12.12495         0.82061
C         12.23750         9.95723         1.01440
C         12.23302        12.86577         1.05968
C         11.08765        15.00520         0.52173
C         11.23018        16.36298        -0.02513
C         12.30339        14.22930         0.83453
C         12.42459        17.03998         0.10738
C         11.32333        19.13355        -0.64855
C         12.49078        18.46639        -0.21869
C         13.55650         2.01180         0.83863
C         13.55731         3.47385         0.66210
C         14.68873         1.16571         1.00460
C         14.76780         4.26904         0.83382
C         13.52428         6.41373         0.91103
C         13.47115         7.80661         1.01254
C         14.74439         5.68579         1.14617
C         14.77410         8.56765         0.97658
C         13.46903        10.67472         1.37381
C         13.31782        12.12712         1.82663
C         14.66155        10.01078         1.43624
C         14.64115        12.91425         1.98131
C         13.52525        14.99333         0.97443
C         13.57456        16.34855         0.63854
C         14.64730        14.36416         1.65475
C         14.91202        17.04273         0.57388
C         13.70149        19.17091        -0.00716
C         14.88114        18.53966         0.42154
C         16.03203         1.50592         0.70525
C         16.01552         3.68578         0.73081
C         17.25620         1.01579         1.12802
C         17.17743         4.09867         1.49812
C         15.93203         6.34240         1.48576
C         15.92207         7.81202         1.62239
C         17.14805         5.61068         1.88273
C         17.23082         8.52545         1.73731
C         15.95861        10.74678         1.50929
C         15.99667        12.16765         1.98570
C         17.24801         9.98504         1.43480
C         17.31632        12.84261         1.85413
C         15.65406        15.19572         2.09058
C         15.87675        16.57646         1.65452
C         17.48599        14.17608         2.23346
C         17.26369        17.20954         1.59190
C         16.10953        19.20710         0.55293
C         17.31668        18.55567         0.93060
C         18.45438         1.84194         0.99215
C         18.44600         3.28177         1.44116
C         19.67446         1.26551         0.73762
C         19.76647         4.04617         1.50861
C         18.47556         6.32650         1.98017
C         18.51409         7.78712         1.72988
C         19.77569         5.54613         1.72643
C         19.71442         8.45948         1.59261
C         18.53962        10.67314         1.59900
C         18.52627        12.08545         1.57148
C         19.74083         9.93271         1.54590
C         19.75530        12.77100         1.47354
C         18.55204        15.00794         1.74971
C         18.53057        16.41077         1.61395
C         19.70547        14.23775         1.25986
C         19.75945        17.11798         1.28644
C         18.53472        19.22903         0.88086
C         19.77456        18.56219         1.11300
C         20.90760         2.01270         0.61367
C         20.95905         3.40567         0.91572
C         22.04442         1.37156         0.10466
C         22.14929         4.14701         0.68865
C         20.95872         6.30654         1.26767
C         20.96166         7.72610         1.37261
C         22.12719         5.61159         0.84922
C         22.15942         8.45152         1.13250
C         20.96573        10.63852         1.48031
C         20.96135        12.04529         1.43293
C         22.27695         9.88811         1.59197
C         22.25162        12.77935         1.39914
C         20.97031        14.99173         1.01354
C         20.98769        16.44881         1.17496
C         22.24441        14.25372         1.19712
C         22.24642        17.13524         1.06220
C         20.99572        19.24896         1.03093
C         22.25343        18.58122         1.04418
C         23.26926         2.06764        -0.08903
C         23.31220         3.46641         0.25467
C         24.37069         1.39447        -0.66068
C         24.57911         4.19979         0.07285
C         23.25920         6.37037         0.50073
C         23.30067         7.78122         0.65586
C         24.51598         5.69089         0.13151
C         24.50535         8.52504         0.29558
C         23.45653        10.63616         1.00106
C         23.47354        12.03144         1.02721
C         24.58168         9.94116         0.48031
C         24.66821        12.73403         0.73635
C         23.44124        14.97574         0.69271
C         23.45687        16.43822         0.88577
C         24.70406        14.20655         0.56188
C         24.71922        17.10039         0.83289
C         23.48533        19.25190         0.91946
C         24.72575        18.55883         0.84041
C         25.66566         2.03312        -0.90022
C         25.75614         3.52924        -0.59316
C         26.66969         1.48661        -1.81923
C         26.70779         4.31388        -1.39881
C         25.43266         6.47438        -0.74466
C         25.53058         7.91849        -0.44488
C         26.52131         5.77378        -1.50245
C         26.57392         8.67031        -1.03888
C         25.78049        10.64731         0.13055
C         25.83547        12.03270         0.43022
C         26.84256        10.02727        -0.63986
C         27.12293        12.74243         0.44649
C         25.98607        14.93571         0.68726
C         25.92861        16.37080         0.81606
C         27.15942        14.20907         0.63916
C         27.19462        17.10552         0.99598
C         25.94357        19.24328         0.69086
C         27.20506        18.57063         0.74022
C         27.73481         2.25192        -2.25428
C         27.70261         3.70346        -2.12789
C         28.87437         1.64565        -2.91852
C         28.71431         4.49906        -2.88917
C         27.59804         6.61988        -2.03890
C         27.36493         7.97569        -2.01653
C         28.72303         6.03874        -2.81683
C         29.20560         9.02716        -2.33764
C         28.05754        10.74301        -0.91788
C         28.28562        12.02997        -0.21956
C         29.23783        10.21797        -1.57115
C         29.41075        12.89714        -0.70410
C         28.53252        14.82627         0.80527
C         28.51085        16.34610         0.92608
C         29.48099        14.34233        -0.28550
C         29.70750        17.10266         0.54297
C         28.40746        19.23863         0.68352
C         29.73438        18.55944         0.95498
C         29.95984         2.37623        -3.30380
C         29.96951         3.81738        -3.24685
C         31.06912         4.57632        -3.60313
C         30.04112         6.73435        -2.95063
C         30.27107         8.11870        -2.48643
C         31.10969         5.98648        -3.41776
C         31.53574         8.64180        -2.11095
C         30.54714        10.79529        -1.41734
C         30.65565        12.21151        -1.10705
C         31.66204         9.97076        -1.69758
C         31.80960        12.96091        -1.22192
C         30.77042        15.05580        -0.42941
C         30.79172        16.49383        -0.11933
C         31.85181        14.35877        -0.92296
C         31.87086        17.30315        -0.54680
C         30.85560        19.32925         0.32776
C         31.85750        18.70763        -0.36254
O         15.28672        12.47608         3.21990
O         10.12742        14.98976         1.66615
O         19.22083         3.35822         2.67409
O         16.16582         2.62952        -0.15523
O         20.14230        14.57042        -0.12025
O         28.00613         8.75154        -2.98605
O          3.41070         5.53247        -1.92356
O          8.03037         4.09024         2.39232
O          9.76504        16.24313        -1.96652
O         16.53107        14.75319         3.08460
O          5.41930        11.28483         0.88549
O         28.22231         5.32726        -3.99695
O         22.42399        13.70876         2.54500
O          5.09097         4.11332         1.97298
O         27.93416        16.73866         2.23548
O         16.37875         8.27181         2.92885
O         16.36239        17.39626         2.75269
O         25.21163         6.13564        -2.15754
O          7.62006        12.67586         1.58202
O         23.90736        14.57557        -0.64327
O          4.98683        16.47045        -3.36179
O         28.12883        11.99039         1.22711
O          5.14315        14.88973         0.15842
O         19.34233         5.92037         3.07156
O         16.87073         4.56272         2.84639
O         26.34914         2.56667         0.31900
O         28.90247        13.97544        -1.57811
O          3.51080         9.95367        -2.88262
O         25.08236         4.95139         1.25556
O         16.62528        10.51663         0.20520
O         11.31320         8.00382        -1.22850
H         11.97494         7.30800        -1.48485
O         29.11691        14.34280         2.03934
H         28.64020        14.78484         2.77611
O         29.94568        18.59593         2.41350
H         29.23088        18.03407         2.80163
O         22.57323         9.80670         3.02735
H         21.86063         9.28535         3.45473
O          3.07135        13.97851        -4.04501
H          3.51377        14.81116        -4.32064
O         15.55333        16.52233        -0.64968
H         14.99143        16.77663        -1.41256
O          6.06226         9.70525        -2.36332
H          5.45707         9.44587        -3.09652
O         15.11240         8.57002        -0.44696
H         14.44082         9.10493        -0.92023
O         12.65165         5.69074        -1.16031
H         12.08745         5.00952        -1.58614
O         12.75401        12.02920         3.16563
H         13.51096        11.94296         3.79037
H          0.40601         1.28586        -0.22938
H          0.38048         3.70377        -0.80003
H          2.50813         0.18928         0.53290
H          0.35039         5.83517        -0.54330
H          0.45313         8.16046        -1.26507
H          0.44625        10.10274        -1.66307
H          0.58321        12.43710        -2.31789
H          0.54837        14.38980        -2.49745
H          0.57269        16.80902        -2.37915
H          1.90344        18.99974        -2.59580
H          4.92162         0.26649         0.86765
H          4.01967        20.23197        -2.35373
H          7.36732         0.28490         1.02758
H          6.53135        20.25127        -1.83850
H          9.84036         0.27338         1.05488
H          8.95039        20.20532        -1.42234
H         12.27193         0.28663         1.11034
H         11.36802        20.22162        -0.80886
H         14.49734         0.16417         1.42057
H         13.71665        20.25679        -0.18850
H         17.34847         0.02803         1.60305
H         16.16158        20.27573         0.29084
H         19.71578         0.19100         0.50503
H         18.55409        20.28242         0.56145
H         21.99096         0.30393        -0.15345
H         20.97910        20.34248         0.90644
H         24.23166         0.35576        -0.99611
H         23.49434        20.35167         0.87865
H         26.62260         0.41830        -2.07992
H         25.93850        20.34092         0.61464
H         28.88443         0.55097        -3.02303
H         28.40904        20.33060         0.54443
H         30.84639         1.86987        -3.71374
H         31.98341         4.06954        -3.94489
H         32.07181         6.48860        -3.59471
H         32.44021         8.02464        -2.20446
H         32.67158        10.37159        -1.53009
H         32.74217        12.48162        -1.55236
H         32.81628        14.86824        -1.05972
H         32.71916        16.85086        -1.07684
H         30.87684        20.41806         0.48009
H         32.68434        19.29959        -0.78125
