         424
 CSIRO Nanostructure Databank - Neutral Graphene Oxide Data Set
C          1.36647         2.02344         1.70935
C          1.29265         3.40998         1.56245
C          2.59583         1.36730         1.71457
C          2.46762         4.18582         1.44899
C          1.24411         6.38894         1.43388
C          1.22630         7.77232         1.29179
C          2.43067         5.64114         1.29885
C          2.40759         8.50816         1.01576
C          1.19847        10.71867         0.96942
C          1.20235        12.09883         0.86366
C          2.40239         9.97671         0.89607
C          2.39795        12.83062         0.66548
C          1.20919        15.03156         0.66764
C          1.22013        16.42297         0.64532
C          2.40446        14.28568         0.63465
C          2.43352        17.13072         0.61536
C          2.45806        18.56850         0.55805
C          3.79751         2.10144         1.59217
C          3.71650         3.51721         1.49582
C          5.05906         1.41641         1.45044
C          4.95824         4.29621         1.41076
C          3.63264         6.35374         0.98204
C          3.59993         7.77887         0.85281
C          4.87600         5.66590         0.92195
C          4.87665         8.49840         0.68461
C          3.59412        10.69899         0.67315
C          3.61507        12.11165         0.53858
C          4.88593         9.98560         0.62204
C          4.87989        12.81666         0.35421
C          3.65172        14.97843         0.58778
C          3.66462        16.40612         0.60833
C          4.88736        14.26143         0.44508
C          4.90462        17.11125         0.61658
C          3.63598        19.24932         0.48957
C          4.90730        18.56273         0.53174
C          6.25554         2.07097         1.20067
C          6.28875         3.55081         1.24978
C          7.46609         1.38046         0.87952
C          7.43248         4.24647         0.65186
C          6.05572         6.27572         0.31661
C          6.04309         7.77851         0.10027
C          7.36733         5.59214         0.30463
C          7.32292         8.49422        -0.00366
C          6.01750        10.64005        -0.13620
C          6.08206        12.12223         0.14719
C          7.32897         9.89505        -0.00614
C          7.34826        12.77666         0.07749
C          6.10385        14.97359         0.38637
C          6.11249        16.37901         0.55624
C          7.38982        14.28840        -0.03825
C          7.39201        17.09745         0.69699
C          6.08525        19.27372         0.39570
C          7.38191        18.63111         0.59397
C          8.67098         2.04002         0.63337
C          8.75448         3.54513         0.79186
C          9.87769         1.35130         0.38001
C          9.85242         4.16288        -0.01815
C          8.51988         6.31661        -0.12340
C          8.52726         7.73706        -0.21448
C          9.70056         5.52217        -0.62813
C          9.73175         8.45602        -0.47774
C          8.54432        10.60882        -0.12942
C          8.53297        12.04388        -0.03946
C          9.76171         9.86835        -0.40418
C          9.89191        12.70133         0.09799
C          8.65337        14.89731         0.61496
C          8.66546        16.40227         0.43062
C          9.88622        14.22181         0.05769
C          9.80791        17.11202         0.20175
C          8.62843        19.27851         0.18351
C          9.80872        18.56859         0.07125
C         11.07611         2.02207         0.05750
C         11.04039         3.46675        -0.20380
C         12.29521         1.33667        -0.07230
C         12.20984         4.15394        -0.62731
C         10.99836         6.27724        -0.66562
C         10.92230         7.72406        -1.05628
C         12.20449         5.58273        -0.73207
C         12.22747         8.44533        -0.86999
C         10.98012        10.56944        -0.67859
C         10.85665        12.06178        -0.91882
C         12.20499         9.86683        -0.83202
C         12.20115        12.80055        -0.93698
C         11.00285        14.93620        -0.21685
C         11.13416        16.39085         0.19480
C         12.24907        14.27337        -0.67890
C         12.19395        17.08651        -0.68026
C         11.05493        19.25065        -0.17330
C         12.23835        18.58136        -0.44922
C         13.49487         1.98879        -0.43699
C         13.43726         3.38430        -1.02238
C         14.71916         1.33075        -0.40458
C         14.72252         4.15959        -0.84360
C         13.46601         6.30183        -0.87745
C         13.45078         7.73340        -0.88944
C         14.69453         5.59308        -0.88534
C         14.70262         8.45218        -0.91667
C         13.46634        10.56830        -0.82913
C         13.43159        12.02403        -0.59446
C         14.68555         9.90032        -0.86661
C         14.72003        12.78824        -0.46942
C         13.56496        14.97179        -0.55488
C         13.60665        16.49044        -0.46168
C         14.71771        14.25931        -0.64498
C         14.68494        17.18920        -1.34729
C         13.48096        19.25591        -0.53575
C         14.72311        18.66594        -0.86484
C         15.95346         2.01475        -0.64213
C         15.93129         3.46331        -0.80067
C         17.16821         1.33535        -0.60096
C         17.18309         4.17314        -0.84933
C         15.93516         6.31738        -0.92141
C         15.91110         7.73985        -0.95784
C         17.17596         5.59679        -0.91435
C         17.20600         8.47171        -1.20304
C         15.94924        10.64791        -0.78277
C         15.96769        12.04292        -0.64825
C         17.17943         9.93296        -0.83196
C         17.24378        12.81023        -0.41057
C         15.94115        14.88341        -1.26269
C         15.98183        16.39150        -1.23007
C         17.25952        14.23018        -0.93862
C         17.18467        16.95006        -1.53106
C         15.86897        19.45574        -0.62736
C         17.18580        19.09248        -1.03180
C         18.42064         2.01873        -0.69223
C         18.40942         3.45596        -0.80689
C         19.64033         1.32854        -0.62082
C         19.65410         4.15653        -0.84916
C         18.42968         6.29169        -0.86261
C         18.40659         7.77710        -0.56750
C         19.62754         5.59763        -0.84096
C         19.67314         8.52216        -0.92134
C         18.42213        10.63771        -0.80651
C         18.45888        12.02222        -0.77927
C         19.68204         9.88943        -0.90689
C         19.71267        12.72871        -1.20230
C         18.45297        14.90478        -1.06776
C         18.47855        16.36021        -1.24536
C         19.71853        14.20857        -0.93295
C         19.61412        17.11967        -0.99309
C         18.42060        19.36482        -0.48125
C         19.62896        18.57131        -0.71633
C         20.88936         2.01140        -0.68448
C         20.86993         3.43384        -0.81304
C         22.13417         1.32925        -0.62856
C         22.15045         4.13166        -1.01394
C         20.89563         6.36450        -0.55704
C         20.93144         7.75596        -1.20820
C         22.15600         5.63507        -0.97209
C         22.18225         8.48097        -0.76418
C         20.94123        10.61313        -0.76680
C         20.95512        12.02006        -0.74543
C         22.13696         9.86154        -0.55901
C         22.12980        12.77495        -0.52732
C         20.90495        14.89673        -0.85792
C         20.95231        16.39642        -1.08224
C         22.15634        14.18700        -0.66522
C         22.09818        17.01274        -0.30636
C         20.82484        19.21132        -0.42839
C         22.08768        18.51476        -0.14427
C         23.39161         2.00539        -0.63385
C         23.41868         3.43326        -0.77349
C         24.62174         1.32001        -0.50854
C         24.62016         4.15885        -0.66017
C         23.42572         6.33715        -0.71274
C         23.39536         7.75832        -0.59122
C         24.62144         5.61105        -0.62872
C         24.62841         8.46330        -0.37948
C         23.34474        10.55171        -0.09192
C         23.34564        12.08312        -0.08143
C         24.63115         9.86281        -0.19231
C         24.63654        12.76889        -0.19763
C         23.39256        14.89237        -0.49108
C         23.40171        16.31657        -0.38140
C         24.62777        14.18137        -0.34353
C         24.59365        17.02681        -0.18062
C         23.37549        19.19073        -0.10348
C         24.58096        18.48064        -0.06309
C         25.85653         2.01677        -0.46321
C         25.85459         3.45413        -0.49682
C         27.09841         1.33326        -0.36070
C         27.07979         4.16814        -0.36033
C         25.85592         6.31848        -0.42939
C         25.85598         7.73860        -0.32649
C         27.07746         5.60464        -0.31862
C         27.07633         8.45009        -0.11263
C         25.84438        10.59493        -0.08309
C         25.84061        12.03976        -0.10551
C         27.07308         9.88792        -0.04732
C         27.09095        12.74218        -0.16349
C         25.86446        14.89673        -0.24620
C         25.84939        16.32893        -0.16589
C         27.08837        14.18491        -0.18693
C         27.06667        17.03451        -0.01955
C         25.82407        19.16365         0.04112
C         27.05610        18.47829         0.07521
C         28.31950         2.02744        -0.26512
C         28.30629         3.46391        -0.23797
C         29.57830         1.34730        -0.20987
C         29.53559         4.18480        -0.10518
C         28.29363         6.32203        -0.11755
C         28.28545         7.73114        -0.00409
C         29.53490         5.60356        -0.04519
C         29.52587         8.45353         0.44403
C         28.31665        10.60848        -0.03969
C         28.30280        12.02769        -0.15022
C         29.54662         9.90996         0.06959
C         29.59201        12.75101        -0.43403
C         28.32679        14.90037        -0.07560
C         28.30747        16.32942         0.03197
C         29.56112        14.20604        -0.05039
C         29.53216        17.03620         0.16795
C         28.28457        19.16687         0.19808
C         29.52077        18.47957         0.24342
C         30.78562         2.03776        -0.09086
C         30.76817         3.47825         0.00106
C         32.06221         1.36210        -0.14552
C         31.98725         4.20351         0.08604
C         30.77326         6.32192        -0.01823
C         30.79684         7.73335         0.10347
C         31.99705         5.59044        -0.03285
C         32.02575         8.45650         0.17480
C         30.78680        10.61211         0.12987
C         30.82075        12.02121         0.03449
C         32.01859         9.88619         0.28434
C         32.02989        12.73369         0.23014
C         30.77586        14.89590         0.13215
C         30.76471        16.32842         0.23210
C         32.02300        14.18095         0.22865
C         31.99284        17.03653         0.36004
C         30.74505        19.16840         0.36013
C         31.98079        18.47802         0.41436
C         33.26290         2.02599         0.03034
C         33.23622         3.46622         0.49005
C         34.52757         1.36250        -0.02125
C         34.50577         4.23138         0.23044
C         33.27347         6.33208        -0.32319
C         33.26395         7.77355         0.11537
C         34.51660         5.58095         0.06637
C         34.47968         8.46782         0.30993
C         33.24455        10.58839         0.42261
C         33.24481        12.02762         0.43749
C         34.46353         9.86221         0.51340
C         34.48836        12.74570         0.52835
C         33.23143        14.88753         0.38573
C         33.22593        16.32817         0.42797
C         34.47793        14.18014         0.49040
C         34.44830        17.03758         0.55375
C         33.20360        19.17090         0.51539
C         34.43758        18.48059         0.58352
C         35.73709         2.01857         0.18348
C         35.79122         3.50069         0.51319
C         36.97958         1.33545         0.20854
C         36.96332         4.15868        -0.22035
C         35.76547         6.34317         0.12063
C         35.75003         7.74078         0.27174
C         37.00253         5.64676         0.04046
C         36.98574         8.45914         0.34313
C         35.72100        10.57420         0.93155
C         35.71288        12.05125         0.62743
C         36.99245         9.87664         0.51201
C         36.94525        12.75186         0.61862
C         35.69727        14.89307         0.59120
C         35.69061        16.33398         0.63735
C         36.93898        14.18780         0.62295
C         36.90399        17.04073         0.77629
C         35.65531        19.17836         0.68521
C         36.89597        18.49342         0.81197
C         38.20391         2.02406         0.30218
C         38.24744         3.45328         0.13407
C         39.44474         1.33506         0.50165
C         39.44144         4.14271         0.15072
C         38.20687         6.34102         0.04301
C         38.22007         7.75518         0.20179
C         39.47913         5.59480        -0.27784
C         39.46292         8.47543         0.23035
C         38.19671        10.59636         0.48392
C         38.18974        12.04119         0.58837
C         39.44967         9.89520         0.34998
C         39.41342        12.76348         0.57379
C         38.16582        14.90274         0.67731
C         38.15586        16.33871         0.80001
C         39.40545        14.19902         0.64420
C         39.36727        17.04661         0.89767
C         38.08142        19.19742         0.98391
C         39.36748        18.50383         1.28961
C         40.63025         2.02267         0.57101
C         40.67282         3.44450         0.39807
C         41.87084         4.17221         0.47904
C         40.73045         6.32315         0.15053
C         40.70860         7.76454         0.19678
C         41.87940         5.57951         0.40670
C         41.90595         8.51463         0.25236
C         40.67693        10.62082         0.38717
C         40.66230        12.06607         0.49011
C         41.89011         9.89660         0.32769
C         41.85419        12.81601         0.49977
C         40.63541        14.92392         0.64340
C         40.61934        16.37885         0.72496
C         41.84234        14.20362         0.57766
C         41.78110        17.14742         0.56056
C         40.57238        19.24573         0.78339
C         41.72375        18.57148         0.50774
O         12.25152        13.70170        -2.08249
O          7.46407        17.92844         1.90357
O         22.11174         4.96651        -2.25788
O         17.19656        18.21317        -2.13233
O         21.82994        17.54415         1.00361
O          5.72219         6.89816        -1.00267
O         13.95082        12.37264         0.73564
O         23.17385        11.31230         1.15544
O          5.26818         9.31483         1.85975
O          5.88849         4.11191         2.55783
O          5.64112        10.52215        -1.55012
H          6.39492        10.84412        -2.08846
O          7.54069        14.58715        -1.46060
H          6.77067        14.20657        -1.93264
O         21.01550         7.59938        -2.64702
H         20.14400         7.29092        -2.97425
O         17.44952         8.41090        -2.64759
H         16.73148         8.90487        -3.09683
O         10.24954        12.18607        -2.22613
H         10.68453        12.96110        -2.66199
O         11.74744        16.83602        -2.02729
H         12.47112        17.09797        -2.64399
O         11.57188        16.37549         1.58658
H         10.87125        15.93324         2.11420
O         39.50083        18.51576         2.78103
H         40.35214        18.07226         2.98629
O         35.71749        10.49464         2.41394
H         36.52552        10.95414         2.72838
O         10.38056        12.36678         1.42359
H          9.81594        12.84720         2.07066
O         10.66268         7.71882        -2.53794
H         10.54540         8.65574        -2.81011
O         19.71778        12.63377        -2.68406
H         20.59751        12.93912        -2.99262
O          8.62958        14.62391         2.04458
H          7.91445        15.16543         2.44448
O         15.72705        14.57190        -2.70256
H         14.95590        15.11187        -2.99550
O         20.93829         6.59176         0.88455
H         20.87446         5.72290         1.33457
O         29.70616        12.75294        -1.91920
H         28.91481        13.21855        -2.26576
O         14.29389        17.17085        -2.74853
H         14.98780        17.65942        -3.24304
O         36.75502         3.98689        -1.64860
H         37.51353         4.42253        -2.09897
O         29.46590         8.43597         1.93758
H         28.63604         8.89281         2.19497
O         21.36499        16.55349        -2.48593
H         20.63322        16.22594        -3.05121
O         39.51697         5.54859        -1.76144
H         40.38381         5.16282        -2.01262
O         36.04804         3.61785         1.93706
H         35.18898         3.45700         2.39211
O         33.31825         6.40737        -1.80142
H         34.19703         6.76802        -2.04742
O         17.30027        12.98448         1.06946
H         17.02149        12.13808         1.48160
O          9.13906         3.77724         2.20105
H          8.35357         3.57463         2.75552
O          9.38497         5.27716        -2.06419
H          9.66739         6.08984        -2.55435
O         14.06771        16.80049         0.87291
H         13.36388        16.53256         1.51119
O         18.27674         7.89025         0.87786
H         19.12032         7.55376         1.26284
O         13.30953         3.18486        -2.48115
H         14.08396         2.65494        -2.76746
O         33.17807         3.38202         1.97112
H         32.36878         2.87604         2.20099
H          0.43905         1.44077         1.80101
H          0.30589         3.89114         1.53033
H          2.63687         0.27170         1.79499
H          0.30214         5.87832         1.67724
H          0.27007         8.29519         1.42661
H          0.23944        10.20715         1.12529
H          0.24486        12.62823         0.95640
H          0.23906        14.51794         0.69084
H          0.27072        16.97747         0.64984
H          1.50036        19.10927         0.54854
H          5.04390         0.31582         1.44651
H          3.64130        20.34721         0.42532
H          7.43640         0.28155         0.81467
H          6.05361        20.34946         0.16637
H          9.88779         0.25214         0.44586
H          8.61358        20.35642        -0.03807
H         12.32937         0.26104         0.16108
H         11.06061        20.34966        -0.10113
H         14.75675         0.27572        -0.09232
H         13.48497        20.32906        -0.28144
H         17.16952         0.24370        -0.46327
H         15.73434        20.37266        -0.03115
H         19.63373         0.23313        -0.51908
H         18.49940        20.16131         0.27407
H         22.12954         0.23232        -0.54247
H         20.80081        20.29500        -0.23238
H         24.62272         0.22211        -0.43837
H         23.39824        20.28938        -0.16414
H         27.10267         0.23281        -0.35816
H         25.82085        20.26134         0.11892
H         29.58915         0.24937        -0.28597
H         28.28007        20.26526         0.26378
H         32.06843         0.28450        -0.37252
H         30.74326        20.26747         0.41068
H         34.53784         0.28242        -0.24157
H         33.20137        20.27057         0.54623
H         36.98760         0.23422         0.17752
H         35.64758        20.27820         0.70950
H         39.43183         0.24165         0.62085
H         38.06012        20.29749         1.01298
H         41.57343         1.48522         0.74877
H         42.81152         3.64094         0.68305
H         42.82752         6.09332         0.62112
H         42.87674         8.00261         0.20974
H         42.85176        10.42554         0.35074
H         42.82714        12.31077         0.44339
H         42.80384        14.73408         0.58918
H         42.74771        16.66260         0.37136
H         40.54159        20.34459         0.75310
H         42.63247        19.12165         0.22207
