         252
 CSIRO Nanostructure Databank - Neutral Graphene Oxide Data Set
C         30.56056        32.59284         1.64199
C         30.51781        33.58843         0.89279
C         30.43372        36.34945        -0.61852
C         30.33999        37.38236        -1.30479
C         30.28512        40.48123        -0.90657
C         30.31512        41.69493        -0.64821
C         33.07636        29.96282         2.41060
C         31.95019        30.58715         2.50787
C         32.74056        32.04923         0.72447
C         31.63340        31.66105         1.72011
C         32.78434        33.43135         0.16672
C         31.59019        34.21682         0.17390
C         32.75091        36.01058        -0.98760
C         31.55182        35.45941        -0.45904
C         32.79413        37.40017        -1.61244
C         31.49156        38.25154        -1.57003
C         32.71042        40.37044        -0.64132
C         31.48981        39.70260        -1.23183
C         32.66960        41.65124        -0.15439
C         31.42867        42.50773        -0.28673
C         32.78386        44.28405         0.14802
C         31.58985        43.86963        -0.15915
C         35.82717        28.30938         2.61322
C         35.38767        29.26237         1.59202
C         34.22381        30.14756         1.71073
C         35.26480        31.87810         0.11593
C         34.04297        31.24939         0.69750
C         35.23469        33.17844        -0.37401
C         33.98376        33.96289        -0.38321
C         35.18257        35.95844        -1.50967
C         33.94742        35.28091        -0.93309
C         35.17466        37.45834        -1.10666
C         33.99966        38.13493        -1.02105
C         35.16517        40.19195        -0.02768
C         33.85960        39.44808        -0.23661
C         35.20933        41.54096         0.33791
C         33.86619        42.22408         0.61410
C         35.18291        44.43897         0.98191
C         33.96404        43.77720         0.52850
C         35.44311        45.85019         0.65160
C         38.12427        27.84099         1.90789
C         36.90912        27.73268         2.72475
C         37.92044        28.97022         0.88153
C         36.57198        29.67867         0.71741
C         37.75825        31.69292        -0.45156
C         36.48563        31.02361         0.00401
C         37.71258        33.13925        -0.78219
C         36.48029        33.84974        -0.81005
C         37.69906        35.98081        -1.34715
C         36.45958        35.23131        -1.14078
C         37.73365        37.48266        -1.09398
C         36.44532        38.29111        -1.04975
C         37.68846        39.94799         0.47117
C         36.39428        39.36506         0.00867
C         37.68713        41.37629         1.02403
C         36.44067        42.19161         0.62748
C         37.80779        44.37162         0.74621
C         36.49189        43.63246         0.97050
C         37.80432        45.74228         0.07898
C         36.53671        46.34416         0.34288
C         40.92031        25.72595         3.38585
C         39.76757        26.28121         3.03311
C         40.58516        28.28307         1.89840
C         39.48090        27.44404         2.36544
C         40.46306        29.25032         0.94326
C         39.15124        29.58733         0.20564
C         40.26820        31.59073        -0.78081
C         39.07986        31.13106         0.06549
C         40.26746        33.01536        -1.21121
C         38.96137        33.75600        -1.24642
C         40.26158        35.96623        -1.15758
C         39.00618        35.26131        -1.44059
C         40.18737        37.21884        -0.56393
C         38.97795        38.01829        -0.49640
C         40.19777        39.91403         0.55530
C         38.97567        39.27741         0.12203
C         40.18331        41.37774         0.68940
C         39.00209        42.07277         0.73866
C         40.18054        44.08528        -0.18249
C         39.07022        43.55183         0.64813
C         39.98316        45.24023        -0.86226
C         38.87295        46.16709        -0.67155
C         40.37461        48.07066        -1.20789
C         39.28999        47.47548        -1.12471
C         43.26162        25.65275         3.03970
C         42.06194        25.10205         3.40543
C         43.10193        28.26927         1.59762
C         41.94171        28.12722         2.53345
C         42.99390        29.29980         0.66771
C         41.70447        30.09643         0.65970
C         42.82094        31.65351        -0.92940
C         41.57700        30.82300        -0.67141
C         42.74245        33.07717        -1.20523
C         41.55258        33.75610        -1.26500
C         42.80893        35.90504        -0.89356
C         41.57635        35.26658        -1.51527
C         42.72723        37.13400        -0.09872
C         41.36528        37.76610         0.13293
C         42.59625        39.57255         1.24413
C         41.36632        39.14407         0.61850
C         42.57168        41.69556         1.18711
C         41.45224        42.12098         0.55665
C         42.65713        44.35243         0.35475
C         41.53777        43.38756        -0.27055
C         43.06078        45.59873        -0.49852
C         41.99198        46.37089        -1.19193
C         42.94617        48.40139        -0.58242
C         41.77075        47.74544        -1.10275
C         44.17699        26.26420         2.43469
C         45.35776        27.82523         0.81384
C         44.27779        27.46711         1.65108
C         45.30024        28.93424        -0.09113
C         44.08755        29.66580        -0.16777
C         45.26732        31.60433        -1.26815
C         43.99898        30.93652        -0.88754
C         45.23893        33.06627        -0.87618
C         44.03977        33.82887        -1.51402
C         45.22124        35.87473        -0.45874
C         44.03932        35.26601        -0.96719
C         45.28558        37.30062        -0.12591
C         43.94686        37.99495         0.03607
C         45.10417        39.92513         1.43426
C         43.86626        39.18963         0.88614
C         45.09481        41.46953         1.20463
C         43.91069        42.23031         1.00783
C         45.08844        44.32454         1.18097
C         43.93922        43.62516         0.77947
C         44.98547        45.87585         1.26166
C         44.24161        46.40490         0.05625
C         43.96027        47.82750        -0.15474
C         47.63695        27.55212         0.13743
C         46.65267        27.18637         0.79839
C         47.81243        28.55377        -0.85211
C         46.42186        29.26448        -1.12888
C         47.83745        31.57740        -0.97867
C         46.54205        30.83066        -1.31413
C         47.79099        33.07699        -0.91132
C         46.52072        33.83642        -1.18020
C         47.75534        35.80704        -0.01658
C         46.44739        35.09721        -0.34135
C         47.69473        37.24134         0.34918
C         46.50239        37.92174         0.47878
C         47.60796        39.95014         1.37880
C         46.44716        39.28331         1.02793
C         47.56806        41.41776         1.68598
C         46.29355        42.18646         1.42918
C         47.22666        44.41237         2.45501
C         46.22333        43.60253         1.62078
C         47.43675        45.77080         1.78861
C         46.38392        46.32541         1.43782
C         50.33764        28.73406        -1.35027
C         48.92550        28.85673        -1.58052
C         50.24914        31.69802        -1.57665
C         49.03110        31.11886        -1.80663
C         50.23151        33.22678        -1.49632
C         48.98515        33.81848        -0.85221
C         50.18920        36.05798        -0.75686
C         48.98348        35.18463        -0.50930
C         50.21748        37.30780         0.13807
C         48.97963        37.83345         0.75097
C         50.22832        40.00587         1.29102
C         48.94164        39.26747         1.32653
C         50.26561        41.34909         2.01805
C         48.90603        42.14342         1.73892
C         50.19620        44.17201         1.32304
C         49.03613        43.48595         1.05342
C         51.32788        29.46159        -1.55764
C         52.69372        31.77224        -1.57484
C         51.52857        30.89131        -1.16019
C         52.60278        32.97966        -1.25868
C         51.53186        33.90579        -1.06460
C         52.58293        36.11627        -0.43176
C         51.51424        35.22357        -0.72846
C         52.57545        37.31969        -0.11680
C         51.39080        38.01604         0.35202
C         52.56686        40.16330         1.02332
C         51.39575        39.32971         0.93543
C         52.64885        41.35285         1.38976
C         51.57326        42.21237         1.70637
C         51.26495        43.52995         1.71345
O         35.74952        43.98416         2.22111
O         48.11157        41.94228         2.94451
O         48.79111        29.93341        -2.50452
O         44.09959        33.88834        -2.91632
O         37.78084        36.95950        -2.46592
O         36.98041        30.89608        -1.37653
O         44.69730        38.15704        -1.19413
O         41.98093        36.87278         1.14132
O         35.54357        28.75088         0.24795
O         38.73769        44.30266         1.86787
O         37.83566        27.54382         0.52468
O         42.47554        40.65343         2.13256
O         32.97750        31.01031        -0.27919
O         47.51854        44.19521         3.59025
O         47.03052        34.96582         0.98267
O         40.06257        31.89280        -2.18079
O         38.90217        34.38233        -2.58558
O         31.52277        39.23970        -2.61773
O         42.08018        28.02957         3.74280
O         44.38829        45.61239        -1.13462
O         45.90189        31.27418        -2.54463
O         49.02951        38.08618         2.19203
O         36.88881        39.02595         1.34024
O         40.98110        45.60284        -1.79725
O         35.15852        35.82114        -2.94988
H         36.01506        36.15395        -3.30008
O         33.61569        41.92380         2.01194
H         34.29839        42.40069         2.54168
O         45.06418        39.77452         2.87395
H         44.19371        40.11377         3.18410
O         42.01666        44.86848         1.53454
H         42.66513        45.39052         2.07070
O         39.19399        31.73283         1.37696
H         40.12638        31.61758         1.70806
O         45.00802        33.09485         0.55044
H         45.86422        33.06159         1.02968
O         48.16613        31.10122         0.37181
H         49.09947        31.33104         0.58393
O         48.17059        43.77985         0.04318
H         48.45816        44.60239        -0.40429
O         46.61885        34.20065        -2.56659
H         45.72315        34.04885        -3.01193
O         50.34006        41.04195         3.39891
H         49.45228        41.17699         3.80965
O         37.58393        41.28430         2.46683
H         37.06360        40.47063         2.66434
O         44.22211        46.23519         2.42276
H         44.77773        46.12164         3.22313
O         33.46374        38.98096         1.09945
H         33.41706        39.77226         1.68729
O         39.19654        29.05809        -1.12149
H         38.87593        28.12873        -1.08429
O         41.87751        43.04197        -1.61265
H         41.73802        43.83679        -2.17772
O         50.05790        36.52290        -2.12716
H         49.97300        35.72209        -2.70064
O         51.46919        30.91701         0.26586
H         52.24388        30.43393         0.62308
O         41.57459        29.79919        -1.68369
H         41.11018        30.16549        -2.46998
O         33.05344        37.21062        -3.01336
H         32.78245        38.02895        -3.48627
O         45.96957        28.72645        -2.36843
H         45.69828        29.48053        -2.94752
O         36.43944        39.08912        -2.27138
H         36.66837        38.48777        -3.01676
O         50.08572        33.66364        -2.89394
H         50.79725        33.23587        -3.41881
O         41.76494        35.43272        -2.94693
H         42.56163        34.87808        -3.19658
O         41.79911        31.10774         1.71218
H         42.09247        30.66910         2.54067
