         344
 CSIRO Nanostructure Databank - Neutral Graphene Oxide Data Set
C          1.34740         1.91509        -0.06876
C          1.29390         3.33867        -0.05265
C          2.55003         1.25779        -0.06349
C          2.44105         4.10832        -0.02035
C          1.17873         6.27311        -0.20653
C          1.14399         7.65787        -0.33369
C          2.39841         5.57249        -0.09104
C          2.32749         8.40793        -0.43267
C          1.09097        10.65158        -0.16580
C          1.12524        11.99341         0.00686
C          2.27946         9.90733        -0.73523
C          2.30683        12.81096        -0.24454
C          1.11889        14.95676         0.14442
C          1.15842        16.31732         0.40638
C          2.28174        14.21820        -0.19636
C          2.37901        17.04608         0.39024
C          2.43375        18.41522         0.78205
C          3.78295         1.98579        -0.00061
C          3.73865         3.44722         0.04700
C          5.00026         1.31433        -0.02560
C          4.90735         4.16730         0.15677
C          3.60017         6.31777        -0.12853
C          3.55294         7.70510        -0.37827
C          4.92428         5.67535         0.24706
C          4.82251         8.43967        -0.61958
C          3.54193        10.64143        -0.31601
C          3.55572        12.12677        -0.42887
C          4.82247         9.89386        -0.30232
C          4.76670        12.81678        -0.47120
C          3.51314        15.00330        -0.61335
C          3.58317        16.39383        -0.01937
C          4.81421        14.24876        -0.45925
C          4.78679        17.08134        -0.03657
C          3.62302        19.10435         0.76186
C          4.83683        18.46286         0.35535
C          6.23884         2.00601         0.09088
C          6.20493         3.46308         0.47569
C          7.45535         1.36329        -0.00955
C          7.45996         4.20650         0.07398
C          6.13762         6.21177        -0.56468
C          6.14815         7.73821        -0.65209
C          7.43403         5.61588        -0.04932
C          7.35870         8.51897        -0.27748
C          6.09600        10.61036        -0.60868
C          6.05109        12.10106        -0.63898
C          7.35599         9.89730        -0.29059
C          7.31400        12.82589        -0.44114
C          6.02171        14.93069        -0.46307
C          6.01295        16.43404        -0.64708
C          7.29015        14.23072        -0.43869
C          7.30150        17.10142        -0.23379
C          6.05550        19.15643         0.34345
C          7.29600        18.48813         0.10226
C          8.70485         2.07659         0.04504
C          8.68454         3.53101         0.07125
C          9.91705         1.41703        -0.00603
C          9.90819         4.26859         0.03439
C          8.61316         6.34919         0.11640
C          8.53385         7.82011         0.26403
C          9.87812         5.68941         0.18150
C          9.79834         8.61331         0.55441
C          8.57153        10.67017        -0.14572
C          8.53551        12.09598        -0.33286
C          9.80682        10.02666         0.10534
C          9.75882        12.81350        -0.40617
C          8.52761        14.95355        -0.40820
C          8.51654        16.39243        -0.26741
C          9.75208        14.25124        -0.45174
C          9.75364        17.08044        -0.08268
C          8.51868        19.16937         0.27910
C          9.75406        18.49424         0.16201
C         11.16643         2.12574        -0.05944
C         11.15540         3.58486        -0.05461
C         12.35621         1.42482        -0.01437
C         12.35156         4.32503         0.01597
C         11.10864         6.40556         0.36352
C         11.10015         7.84088         0.87055
C         12.32356         5.72122         0.30426
C         12.37670         8.62569         0.53483
C         11.02026        10.73598        -0.12163
C         10.98735        12.09879        -0.41398
C         12.33557        10.07246         0.08026
C         12.17210        12.83143        -0.98956
C         10.99907        14.96626        -0.39231
C         10.98960        16.37181        -0.15859
C         12.24130        14.27124        -0.49739
C         12.22170        17.07094        -0.00110
C         10.98859        19.17415         0.31553
C         12.21330        18.48698         0.23591
C         13.63913         2.09429        -0.18464
C         13.64091         3.64502        -0.18595
C         14.87970         1.42438         0.17058
C         14.90526         4.33279         0.17292
C         13.59985         6.42484         0.73175
C         13.62584         7.88507         0.32728
C         14.88154         5.70665         0.40523
C         14.81300         8.57265         0.05288
C         13.56193        10.65085        -0.50122
C         13.50270        12.06020        -0.95900
C         14.77676         9.98593        -0.33100
C         14.79432        12.82956        -0.86366
C         13.44312        14.95534        -0.33362
C         13.45490        16.36316        -0.05410
C         14.73023        14.18804        -0.18741
C         14.68178        17.07295         0.13873
C         13.45803        19.16727         0.36827
C         14.66464        18.48159         0.31469
C         16.08572         2.12786         0.26344
C         16.09837         3.56689         0.24733
C         17.31167         1.40525         0.42125
C         17.37533         4.25477         0.66972
C         16.14382         6.49012         0.68346
C         16.08421         7.89221         0.09653
C         17.38425         5.71696         0.30040
C         17.27612         8.56035        -0.22733
C         16.04506        10.67713        -0.55399
C         16.06145        12.07945        -0.69036
C         17.26557         9.94855        -0.57238
C         17.27211        12.84226        -0.94558
C         15.97512        15.02060        -0.29017
C         15.95072        16.36816         0.05998
C         17.24359        14.37416        -0.61034
C         17.18795        17.04101         0.31882
C         15.95965        19.26072         0.30203
C         17.15612        18.46505         0.83566
C         18.55345         2.06913         0.26769
C         18.56238         3.47490         0.19185
C         19.79329         1.34461         0.16111
C         19.75605         4.15047        -0.39244
C         18.53338         6.36436        -0.06270
C         18.54502         7.82388        -0.20418
C         19.79225         5.63810        -0.18827
C         19.74504         8.47085        -0.31210
C         18.53602        10.64121        -0.91326
C         18.64591        12.17475        -1.04474
C         19.80698         9.91468        -0.61159
C         19.73318        12.81220        -0.17783
C         18.48010        14.98670        -0.11766
C         18.39408        16.32062         0.34146
C         19.68267        14.19787         0.08428
C         19.60000        17.01440         0.92826
C         18.45359        19.16997         0.53240
C         19.64080        18.48661         0.58387
C         21.02050         2.01426         0.08593
C         21.04361         3.44686        -0.04940
C         22.27145         1.31833         0.14629
C         22.24281         4.15158        -0.01008
C         20.99841         6.29229        -0.25416
C         21.02467         7.74682        -0.62044
C         22.25635         5.59169        -0.13117
C         22.25463         8.47701        -0.15851
C         21.02330        10.65008        -0.24204
C         20.97546        12.06951         0.01397
C         22.21943         9.89733        -0.01065
C         22.12121        12.70915         0.49110
C         20.86239        14.89212         0.52912
C         20.88919        16.28116         0.67478
C         22.09740        14.13791         0.92347
C         22.12637        16.98837         0.71373
C         20.90517        19.12709         0.43854
C         22.12140        18.43178         0.53963
C         23.48036         2.00262         0.16800
C         23.49085         3.45036         0.15103
C         24.74130         1.30913         0.19482
C         24.68616         4.16202         0.27755
C         23.45468         6.30589         0.00259
C         23.44587         7.75792         0.03001
C         24.69559         5.60937         0.25486
C         24.66930         8.45969         0.24265
C         23.42057        10.56686         0.31984
C         23.39878        11.98236         0.80416
C         24.64792         9.87732         0.33998
C         24.63098        12.75237         0.37451
C         23.38014        14.88029         0.62438
C         23.36130        16.27264         0.64164
C         24.60299        14.16065         0.37040
C         24.66689        17.02159         0.77564
C         23.34662        19.11507         0.32068
C         24.59211        18.46050         0.31787
C         25.93634         1.98901         0.28162
C         25.94085         3.44504         0.40139
C         27.20840         1.29663         0.23739
C         27.11241         4.12651         0.62094
C         25.88076         6.31785         0.47954
C         25.90861         7.75496         0.40857
C         27.12190         5.59643         0.94733
C         27.11360         8.48203         0.47441
C         25.88279        10.61360         0.35609
C         25.86124        12.03511         0.21098
C         27.11496         9.90805         0.34820
C         27.06230        12.71132        -0.14775
C         25.80113        14.89054         0.05829
C         25.85190        16.27837         0.20117
C         26.90478        14.13770        -0.65844
C         27.04959        17.00623        -0.00140
C         25.77705        19.13935         0.05283
C         27.04518        18.46175         0.04987
C         28.39322         1.95392         0.40170
C         28.41885         3.40813         0.80292
C         29.68354         1.30455         0.21968
C         29.53691         4.11609         0.02485
C         28.39374         6.30326         0.52132
C         28.42390         7.78983         0.76699
C         29.54390         5.62459         0.18783
C         29.60808         8.48699         0.15078
C         28.33191        10.63116         0.13580
C         28.27689        12.00781        -0.21003
C         29.59158         9.89403         0.05281
C         29.55107        12.63982        -0.77705
C         28.22349        14.91254        -0.73837
C         28.27467        16.33377        -0.31585
C         29.53380        14.16702        -0.80594
C         29.49048        17.00987        -0.29235
C         28.23715        19.15456         0.02730
C         29.54040        18.43821         0.20821
C         30.84672         1.99115         0.15451
C         30.91758         3.49126         0.34263
C         31.94417         4.18410        -0.51867
C         30.75088         6.31111        -0.18907
C         30.78074         7.75615        -0.17728
C         31.86443         5.53496        -0.67461
C         31.95423         8.48175        -0.50182
C         30.80523        10.59305        -0.16924
C         30.75702        12.09589         0.01055
C         31.97523         9.87117        -0.43710
C         32.02958        12.83157        -0.30455
C         30.78689        14.91501        -0.58443
C         30.74889        16.34045        -0.54940
C         32.01082        14.17965        -0.49942
C         31.90779        17.12867        -0.72808
C         30.70026        19.20357        -0.35742
C         31.83043        18.54582        -0.75265
O         13.72933         2.90340        -1.42924
O         17.15005        13.84296        -1.98656
O         12.53040         9.72926         1.51553
O         28.87278        14.68139        -2.04099
O          8.83142         8.34011         1.61552
O          6.07746        11.28731        -1.90069
O         19.29547        10.03542        -2.04330
O          4.15027        10.19930         0.95864
O          5.49233         8.18107        -1.89954
O         14.24132        12.49160        -2.16862
O          6.00322         5.68328        -1.90204
H          5.66787         6.41857        -2.46998
O         19.41296        16.95730         2.39997
H         20.13867        17.48214         2.80073
O         16.22345        19.66784        -1.05354
H         16.22663        18.86809        -1.61925
O         30.45635        12.35959         1.41380
H         31.13065        11.90748         1.96260
O          5.18669         6.05157         1.63885
H          4.36657         5.89799         2.15460
O         19.12396        12.48072        -2.37848
H         19.52819        11.65141        -2.73331
O          6.26613         3.47573         1.95333
H          6.17633         4.42215         2.22139
O         29.76983        18.35282         1.67711
H         28.98155        17.91516         2.06468
O         14.74616        13.77180         1.24300
H         14.68888        14.58615         1.78873
O         21.10353         7.73650        -2.10131
H         20.61067         8.52192        -2.43273
O         19.60741         3.99144        -1.86765
H         20.31323         4.53173        -2.28557
O         27.09985         5.68255         2.43416
H         27.78511         5.03826         2.74280
O         13.54627         6.43414         2.21452
H         12.68443         6.87312         2.46982
O         31.31382         3.75477         1.71066
H         30.54629         3.53040         2.28786
O         11.14763         7.69113         2.32365
H         11.24838         8.59907         2.69147
O         29.69514        12.17752        -2.13626
H         29.23445        12.82752        -2.71344
O         17.00527        18.38999         2.28343
H         17.76625        17.84808         2.61413
O         22.02513        14.11069         2.43180
H         22.07764        15.04459         2.73133
O         23.49847        11.86929         2.27587
H         23.07680        12.68091         2.65753
O         28.60879         7.94563         2.22679
H         27.96202         7.32069         2.64534
O         26.40477        13.99736        -2.02576
H         27.18481        14.09261        -2.62176
O         16.22421         6.65862         2.15360
H         15.28852         6.75427         2.47679
O          2.22542        10.03170        -2.18529
H          1.40254         9.60355        -2.49987
O          5.88713        16.64762        -2.09527
H          5.06395        16.17487        -2.37695
O         17.42060         4.20590         2.14702
H         16.97309         5.03360         2.46815
O         29.24218         3.84634        -1.36785
H         29.93735         4.27690        -1.90947
O         11.79190        12.95314        -2.39654
H         12.62806        13.08370        -2.90378
O         24.91962        17.09012         2.22897
H         24.28558        17.73841         2.60242
O          3.37799        15.22257        -2.07331
H          2.51244        15.66108        -2.22080
O         28.72334         3.45446         2.24881
H         28.16634         2.77255         2.68214
H          0.40580         1.34976        -0.10291
H          0.30335         3.81271        -0.08001
H          2.58657         0.15918        -0.09451
H          0.22548         5.72865        -0.18316
H          0.16625         8.15654        -0.39339
H          0.15379        10.11212         0.03740
H          0.21113        12.49494         0.35664
H          0.16175        14.43235         0.27354
H          0.23649        16.83741         0.70419
H          1.50570        18.91624         1.09375
H          5.01068         0.22132        -0.15773
H          3.65679        20.16307         1.05715
H          7.48389         0.27528        -0.17716
H          6.07343        20.21940         0.62691
H          9.94097         0.31732        -0.02871
H          8.50922        20.24233         0.52109
H         12.34608         0.33824         0.15801
H         10.98696        20.25832         0.50106
H         14.85987         0.34346         0.37709
H         13.45793        20.25904         0.50285
H         17.28071         0.30700         0.47197
H         15.84857        20.19584         0.90365
H         19.77510         0.24763         0.24177
H         18.44468        20.25415         0.34437
H         22.26743         0.21847         0.18490
H         20.92515        20.20638         0.22531
H         24.74056         0.20996         0.13768
H         23.31111        20.18845         0.07897
H         27.20623         0.22161        -0.00214
H         25.75493        20.22224        -0.14265
H         29.68384         0.21159         0.08005
H         28.23045        20.25468         0.05425
H         31.79235         1.44632         0.00726
H         32.80639         3.62428        -0.91067
H         32.67681         6.05519        -1.20356
H         32.88185         7.95090        -0.75332
H         32.92194        10.39377        -0.63071
H         32.99734        12.31773        -0.21487
H         32.96417        14.72352        -0.56766
H         32.86588        16.65163        -0.97344
H         30.65265        20.30208        -0.37284
H         32.70958        19.11438        -1.09038
