         404
 CSIRO Nanostructure Databank - Neutral Graphene Oxide Data Set
C          1.19332         2.03512        -0.34516
C          1.18125         3.43351        -0.49146
C          2.38218         1.34333        -0.18671
C          2.37153         4.17708        -0.48066
C          1.16530         6.38221        -0.65012
C          1.13620         7.73887        -0.73823
C          2.39207         5.61754        -0.65000
C          2.34144         8.51659        -1.04363
C          1.18879        10.73163        -0.82864
C          1.20640        12.11784        -0.76325
C          2.38112         9.98775        -0.85891
C          2.42255        12.83158        -0.71626
C          1.25876        15.05133        -0.65701
C          1.28963        16.43611        -0.64097
C          2.44876        14.28216        -0.68118
C          2.51824        17.13419        -0.65602
C          2.56346        18.56786        -0.64328
C          3.62580         2.03220        -0.18442
C          3.62266         3.47586        -0.34404
C          4.82862         1.33242         0.03018
C          4.83183         4.18341        -0.32061
C          3.61764         6.29949        -0.66155
C          3.67113         7.74272        -0.95748
C          4.84900         5.60734        -0.42046
C          4.89444         8.50398        -0.65536
C          3.62535        10.66409        -0.77635
C          3.64594        12.09498        -0.70197
C          4.86673         9.92380        -0.66307
C          4.89521        12.79800        -0.63582
C          3.70110        14.96109        -0.68556
C          3.73472        16.39298        -0.68166
C          4.92504        14.22198        -0.67435
C          4.97985        17.08524        -0.70237
C          3.75696        19.23568        -0.65875
C          5.00372        18.52087        -0.69240
C          6.08502         1.98432         0.02195
C          6.13609         3.43062        -0.41589
C          7.28336         1.33334         0.28112
C          7.27909         4.15946         0.24679
C          6.05695         6.34847        -0.28003
C          6.08664         7.76619        -0.36922
C          7.27140         5.65927         0.20071
C          7.31965         8.45509        -0.12144
C          6.07013        10.65119        -0.42460
C          6.11204        12.06288        -0.49184
C          7.27455         9.91351        -0.03734
C          7.37903        12.76650        -0.53688
C          6.17919        14.91943        -0.70689
C          6.20241        16.35509        -0.73591
C          7.39860        14.20125        -0.70953
C          7.44020        17.05038        -0.78454
C          6.22783        19.19840        -0.71461
C          7.45862        18.49263        -0.76919
C          8.55137         2.02673         0.33062
C          8.57226         3.45749         0.28826
C          9.75758         1.34623         0.51687
C          9.77028         4.18503         0.37015
C          8.56799         6.35495         0.18330
C          8.55145         7.77780         0.05494
C          9.76854         5.63359         0.29332
C          9.81157         8.48409         0.05621
C          8.62459        10.67098        -0.09715
C          8.58174        12.06080        -0.52920
C          9.86310         9.88261        -0.16369
C          9.83805        12.72557        -0.89883
C          8.64697        14.90211        -0.80438
C          8.66527        16.33029        -0.84899
C          9.87857        14.19389        -0.86126
C          9.91167        17.01977        -0.97810
C          8.68965        19.16908        -0.79955
C          9.92584        18.47718        -0.92857
C         10.99177         2.05012         0.57050
C         11.00892         3.47731         0.45500
C         12.21281         1.36680         0.76162
C         12.25625         4.17054         0.43223
C         11.02881         6.33014         0.29540
C         11.03317         7.75421         0.17457
C         12.25564         5.61385         0.38445
C         12.27341         8.46626         0.20936
C         11.10133        10.55349        -0.28867
C         11.14121        11.96057        -0.73518
C         12.30504         9.88491        -0.01029
C         12.37383        12.73725        -0.53912
C         11.11731        14.86383        -0.92074
C         11.11464        16.29044        -1.02935
C         12.36958        14.13150        -0.75850
C         12.37730        16.98993        -1.31041
C         11.13173        19.18275        -0.91246
C         12.39604        18.53686        -1.23081
C         13.45804         2.01169         0.66800
C         13.47884         3.44109         0.42407
C         14.63493         1.24415         1.00879
C         14.70881         4.19844         0.29109
C         13.49003         6.34043         0.47494
C         13.47417         7.75857         0.43474
C         14.73408         5.62484         0.45914
C         14.70350         8.52573         0.69343
C         13.54828        10.62739         0.05213
C         13.56134        12.05252        -0.16749
C         14.73707         9.97292         0.40049
C         14.76476        12.78983         0.03238
C         13.60341        14.84255        -0.63088
C         13.66480        16.25632        -1.09275
C         14.76002        14.19999        -0.18725
C         14.92504        17.05097        -0.89019
C         13.67620        19.20920        -0.96067
C         14.87315        18.53605        -0.83900
C         15.89664         1.54550         0.49586
C         15.88621         3.60470        -0.18606
C         17.18629         1.25903         0.96091
C         17.17366         4.26366        -0.22958
C         15.99360         6.31986         0.44036
C         16.01335         7.76870         0.74641
C         17.19045         5.68696         0.11282
C         17.26815         8.53764         0.61108
C         15.97208        10.68733         0.49452
C         15.98083        12.10206         0.36145
C         17.21534         9.97622         0.66358
C         17.21954        12.83814         0.47603
C         15.94235        15.00362         0.30615
C         16.09025        16.38765        -0.27020
C         17.23953        14.24218         0.35023
C         17.26219        17.09078        -0.10782
C         16.11148        19.21908        -0.61670
C         17.29925        18.53402        -0.34302
C         18.38814         1.93113         0.51607
C         18.44809         3.36383         0.03688
C         19.59337         1.28711         0.67776
C         19.66553         4.11341         0.51248
C         18.47008         6.41051         0.14823
C         18.47328         7.84414         0.50558
C         19.74712         5.60755         0.34301
C         19.72844         8.50131         0.74519
C         18.41979        10.70603         0.78065
C         18.44301        12.12355         0.70565
C         19.65355         9.95060         1.05810
C         19.67897        12.85946         0.79110
C         18.45799        14.97928         0.44119
C         18.47884        16.40284         0.27924
C         19.68599        14.28854         0.65923
C         19.69158        17.11973         0.40373
C         18.53523        19.21901        -0.19961
C         19.72298        18.55981         0.14955
C         20.90563         1.83672         0.16905
C         20.98129         3.35005         0.52199
C         22.11409         1.12379         0.76645
C         22.22105         4.15551         0.33882
C         20.95633         6.32413         0.88434
C         20.92385         7.80773         0.89108
C         22.26738         5.55576         0.84681
C         22.20543         8.53601         0.97836
C         20.95289        10.73358         1.11742
C         20.90990        12.18573         0.91956
C         22.18170        10.00658         0.79874
C         22.14921        12.88571         0.92547
C         20.90234        15.02682         0.78945
C         20.88937        16.43795         0.70990
C         22.15740        14.32898         0.95387
C         22.12048        17.22730         1.08789
C         20.96032        19.25310         0.17892
C         22.17488        18.62420         0.51410
C         23.36308         1.47761         0.30827
C         23.35938         3.62275        -0.21167
C         24.68632         1.23403         0.76543
C         24.67297         4.22648        -0.13776
C         23.62634         6.27642         0.78719
C         23.51059         7.81630         0.74400
C         24.57788         5.72434        -0.32932
C         24.51924         8.54704        -0.19541
C         23.34644        10.72012         0.61714
C         23.34753        12.14034         0.83572
C         24.56895        10.06125         0.08185
C         24.60893        12.80758         1.14095
C         23.36752        15.05153         0.99818
C         23.41249        16.47054         0.90723
C         24.62729        14.33469         1.23046
C         24.63022        17.16849         0.88795
C         23.40830        19.28568         0.48058
C         24.65049        18.61455         0.73228
C         25.82670         2.04230         0.44631
C         25.80829         3.47090         0.05348
C         27.07581         1.43282         0.65193
C         27.12411         4.16374        -0.09953
C         25.89498         6.46952        -0.21485
C         25.87936         7.82536        -0.10441
C         27.15993         5.68855        -0.27741
C         27.15025         8.59195        -0.24646
C         25.86262        10.81441         0.11610
C         25.89782        12.07631         0.92412
C         27.16129        10.09703        -0.19443
C         27.15512        12.87244         0.96056
C         25.90418        15.05095         1.06718
C         25.89209        16.46856         0.95679
C         27.11997        14.34665         1.06344
C         27.11787        17.18573         0.96013
C         25.87341        19.29979         0.75128
C         27.13052        18.62755         0.89915
C         28.34916         2.08878         0.57455
C         28.37384         3.51633         0.32411
C         29.52768         1.38141         0.74686
C         29.58569         4.22723         0.37288
C         28.42905         6.37871         0.03122
C         28.45801         7.84694        -0.09121
C         29.60483         5.67998         0.26529
C         29.68795         8.58353         0.43953
C         28.50443        10.84566        -0.04286
C         28.40208        12.24091         0.53550
C         29.51636        10.02081         0.75597
C         29.57606        12.90838         0.88482
C         28.34299        15.05692         1.03574
C         28.35222        16.48004         1.04488
C         29.58633        14.34312         1.08436
C         29.59502        17.17400         1.11553
C         28.36281        19.30211         0.97184
C         29.61001        18.60886         1.09770
C         30.84932         2.06640         0.90999
C         30.81947         3.52491         0.53648
C         32.03678         1.34985         0.31917
C         32.04660         4.20025         0.42327
C         30.85803         6.38358         0.51586
C         30.89115         7.76545         0.78388
C         32.08652         5.63601         0.48161
C         32.17843         8.39037         0.94129
C         30.48476        10.76263         1.39808
C         30.72597        12.13898         1.17380
C         32.34905         9.72961         1.36402
C         32.06244        12.73587         1.40461
C         30.79025        15.00578         1.26069
C         30.82190        16.44492         1.23805
C         32.05403        14.23546         1.40408
C         32.05024        17.12682         1.31037
C         30.85616        19.27037         1.20682
C         32.08202        18.55418         1.31261
C         33.23583         2.01612         0.12261
C         33.27767         3.47161         0.27100
C         34.44021         1.32215        -0.24795
C         34.49455         4.15589         0.17389
C         33.33522         6.29519         0.45299
C         33.37672         7.71325         0.60103
C         34.56425         5.58155         0.24918
C         34.55479         8.47345         0.39537
C         33.35670        10.57277         0.86089
C         33.29824        12.03778         0.89432
C         34.48742         9.87319         0.34587
C         34.32064        12.79792         0.33218
C         33.29132        14.93553         1.05834
C         33.32997        16.35336         1.54036
C         34.37823        14.25681         0.51627
C         34.55635        17.08344         1.11272
C         33.34660        19.21099         1.41712
C         34.57855        18.50431         1.29298
C         35.68264         1.96299        -0.29996
C         35.74529         3.39296         0.06788
C         36.88877         1.31756        -0.66317
C         37.02046         4.17103        -0.23922
C         35.77278         6.29609         0.01502
C         35.88243         7.77933         0.28269
C         36.94746         5.63234        -0.38836
C         36.86658         8.49927        -0.61466
C         35.51598        10.62229        -0.39340
C         35.38338        12.12637        -0.47953
C         36.76889         9.91857        -0.77014
C         36.54386        12.91346        -1.05396
C         35.57231        15.00307         0.21730
C         35.67686        16.37399         0.63328
C         36.62483        14.44335        -0.65776
C         36.93185        17.07586         0.54605
C         35.83361        19.15798         1.28119
C         37.02185        18.44371         0.98040
C         38.09187         2.02496        -0.91454
C         38.14065         3.44689        -0.83910
C         39.27606         1.33865        -1.35066
C         39.26134         4.18276        -1.28625
C         38.04471         6.34267        -0.95242
C         37.93462         7.76503        -1.14073
C         39.23069         5.62372        -1.35591
C         38.95019         8.46084        -1.95395
C         37.78024        10.67556        -1.37731
C         37.70978        12.10333        -1.51617
C         38.89189         9.96208        -2.05414
C         38.81754        12.73028        -2.11991
C         37.90114        15.18847        -0.68568
C         38.07459        16.41927         0.03589
C         38.95342        14.81493        -1.51445
C         39.34609        17.07281         0.01516
C         38.29644        19.05458         1.03606
C         39.45765        18.37836         0.59943
C         40.40607         2.03286        -1.69614
C         40.43135         3.46613        -1.69478
C         41.57592         4.19004        -2.08325
C         40.38075         6.30682        -1.83166
C         40.27436         7.74807        -2.20107
C         41.54352         5.57984        -2.15185
C         41.47537         8.60254        -2.29846
C         40.18062        10.72684        -2.39882
C         40.13812        12.19915        -2.19937
C         41.43429         9.95111        -2.37881
C         41.26696        13.03935        -2.19378
C         40.30776        15.21390        -1.32277
C         40.49751        16.44793        -0.56710
C         41.35159        14.39233        -1.80016
C         41.74359        17.08499        -0.45115
C         40.74252        18.98828         0.67639
C         41.85888        18.33455         0.18196
O         23.99026         8.42516        -1.49058
O         15.31348         8.13973         1.98469
O         23.33684         2.36319        -0.80957
O         18.05959         3.73076        -1.28042
O         39.18313        10.37848        -3.41609
O         23.21440         8.28071         2.08006
O         20.23826         3.63702         1.75080
O         19.38160         6.08031        -0.97327
O         27.10750         9.40617        -1.46806
O         31.39450        10.16662         2.27502
O          7.90951        10.45097         1.16897
O         27.25886         4.79680        -1.42908
O         15.86385         2.33817        -0.70203
O         38.65704        14.02089        -2.62527
O         26.67950        12.03082         2.14910
O         29.45378         8.35120        -1.02281
O         25.01554        10.89741        -1.05335
O          3.05236         8.08604        -2.24750
O         10.52625        12.13724        -2.06571
O         32.18124        13.46503         2.68730
O         34.84264        11.27244        -1.54593
O         12.35189        17.78955        -2.51145
O         20.27176        10.27497         2.34589
O         39.25622         7.87393        -3.25279
O         24.57480        13.48970         2.43179
O         36.70405         3.70562         1.12963
O         21.55506         5.76820         2.09985
O          6.97668         4.89777         1.46061
O         14.60578        16.44077        -2.20311
O         36.10137        13.96604        -1.94624
O         21.99657        17.41730         2.54810
H         22.80924        17.87554         2.85196
O         20.85287         1.69389        -1.26372
H         21.75630         1.87996        -1.61432
O         29.05743        11.03576        -1.36894
H         28.91708        10.18241        -1.85005
O          6.48182         3.41626        -1.84194
H          5.78998         2.90458        -2.31202
O         23.98031         5.88429        -1.61607
H         24.00958         6.86514        -1.86260
O         31.10585         2.05076         2.38490
H         31.97314         2.48859         2.52810
O         36.49000         7.87344         1.63220
H         36.03880         7.21753         2.20575
O         15.59443        15.25422         1.73447
H         16.40138        15.59864         2.17528
O         24.30544         5.95082         2.01759
H         23.78381         6.36850         2.74138
O         33.45353        16.22289         3.01993
H         32.90674        15.45237         3.29591
H          0.24017         1.48806        -0.35521
H          0.21314         3.93463        -0.62247
H          2.37677         0.25094        -0.06332
H          0.22025         5.85634        -0.45674
H          0.18848         8.26582        -0.55836
H          0.21993        10.21829        -0.89228
H          0.24771        12.65216        -0.77058
H          0.28111        14.55152        -0.64757
H          0.34860        17.00442        -0.61945
H          1.61511        19.12429        -0.62055
H          4.78503         0.25663         0.25931
H          3.78048        20.33507        -0.64899
H          7.27794         0.24894         0.47203
H          6.24065        20.29849        -0.70283
H          9.76068         0.25096         0.61861
H          8.69968        20.26865        -0.76259
H         12.19021         0.28217         0.94181
H         11.12869        20.25486        -0.66438
H         14.52285         0.42288         1.73105
H         13.66240        20.30377        -0.84232
H         17.31997         0.42061         1.66037
H         16.12485        20.31765        -0.67809
H         19.58019         0.24232         1.02537
H         18.56162        20.30311        -0.38813
H         21.99379         0.49906         1.66213
H         20.97262        20.31533        -0.11222
H         24.87310         0.33109         1.36686
H         23.43770        20.34835         0.19287
H         27.08492         0.36585         0.92441
H         25.87108        20.39491         0.63974
H         29.48632         0.29504         0.91809
H         28.37265        20.40237         0.93981
H         32.00054         0.25374         0.22473
H         30.88205        20.37065         1.20622
H         34.37846         0.24505        -0.46531
H         33.37265        20.30840         1.49277
H         36.87449         0.23124        -0.83995
H         35.89149        20.23432         1.50084
H         39.26546         0.23991        -1.39359
H         38.38471        20.08335         1.41564
H         41.31143         1.49299        -2.01002
H         42.48648         3.64864        -2.37706
H         42.43265         6.11272        -2.51670
H         42.45840         8.11444        -2.22020
H         42.38172        10.51069        -2.37362
H         42.23776        12.55398        -2.38231
H         42.37618        14.78655        -1.71613
H         42.64051        16.62314        -0.88619
H         40.83758        19.98440         1.13159
H         42.84690        18.81090         0.25147
