         271
 CSIRO Nanostructure Databank - Neutral Graphene Oxide Data Set
C         30.31196        31.98503        -0.84834
C         30.34932        33.21812        -0.78507
C         30.38831        35.69392         1.44654
C         30.63235        36.90051         1.43744
C         30.49831        40.20576         1.38725
C         30.41857        41.44322         1.42915
C         32.63102        29.14153        -0.59076
C         31.56291        29.75829        -0.60537
C         32.77044        31.92084        -0.72217
C         31.47347        31.13079        -1.23248
C         32.75151        33.27808        -0.41451
C         31.41043        34.09316        -0.22187
C         33.25099        36.47524        -0.11182
C         30.95768        34.33737         1.25848
C         32.94130        37.20172         1.22465
C         31.63067        37.92959         1.31784
C         32.85662        40.07994         0.96473
C         31.59852        39.28976         1.27811
C         32.82453        41.57504         0.75506
C         31.28054        42.44022         0.72111
C         32.78505        44.27851         1.23816
C         31.68269        43.72365         1.32768
C         35.42819        27.36722        -0.53216
C         35.24431        28.81980        -0.73463
C         33.99586        29.62567        -0.76044
C         35.22909        31.73744        -0.37653
C         34.01723        31.14002        -0.59548
C         35.32317        33.24148        -0.51264
C         34.01751        33.97639        -0.14769
C         35.38851        35.78624         0.94742
C         34.14414        35.30230         0.18557
C         35.35443        37.28056         1.30354
C         34.19660        38.02389         1.34301
C         35.36187        40.18257         1.06323
C         34.17959        39.45728         1.22459
C         35.34647        41.63397         0.89525
C         34.10503        42.33073         0.92592
C         35.29903        44.46983         0.85164
C         34.11692        43.74780         1.06396
C         35.47080        45.88663         0.70638
C         37.91994        27.26713        -0.45035
C         36.51375        26.78535        -0.56642
C         37.74067        28.82283        -0.42782
C         36.55347        29.49639        -0.43858
C         37.73646        31.70964        -0.56118
C         36.50254        30.96765        -0.03224
C         37.76509        33.12357         0.00200
C         36.62215        33.85332         0.01592
C         37.88870        35.90876         0.84474
C         36.64903        35.37975         0.14336
C         37.78423        37.01266         1.65477
C         36.62007        37.94695         1.58482
C         37.90313        40.16938         0.74098
C         36.65899        39.49435         1.28566
C         37.85994        41.67754         0.58919
C         36.55942        42.38542         0.77126
C         37.70665        44.52281         0.00260
C         36.52737        43.78350         0.58072
C         37.68938        46.05430        -0.15640
C         36.45945        46.59162         0.45049
C         40.23825        24.81352        -1.89754
C         39.19466        25.45315        -1.78325
C         40.26567        27.54726        -1.30876
C         38.86638        26.90420        -1.60741
C         40.22956        28.81110        -0.56618
C         39.01603        29.54557        -0.39380
C         40.28522        31.67194        -0.70980
C         39.01843        30.94048        -0.36236
C         40.30453        33.10077        -0.24283
C         39.09435        33.72162         0.29602
C         40.38797        35.89911         0.12468
C         39.18989        35.18814         0.66350
C         40.47189        37.38711         0.24850
C         39.17180        38.15021         0.04712
C         40.48227        39.87850         0.95733
C         39.14525        39.31916         0.77035
C         40.35825        42.08805         0.93402
C         39.08668        42.54216         0.55700
C         40.23550        44.54168        -0.25173
C         39.03618        43.86175         0.05673
C         40.22818        46.00122        -0.58319
C         38.96600        46.80465        -0.37309
C         40.01169        48.53619        -1.71757
C         39.02048        48.05314        -1.16144
C         42.83748        24.66509        -1.65981
C         41.61948        25.24497        -2.24582
C         42.79922        27.33473        -0.65966
C         41.60420        26.85325        -1.46210
C         42.78599        28.68394        -0.25588
C         41.50709        29.43918        -0.23358
C         42.80587        31.69080        -0.24260
C         41.52495        30.95061        -0.21748
C         42.77158        33.05733        -0.20651
C         41.50873        33.77932        -0.20549
C         42.80478        35.88557        -0.75857
C         41.54721        35.22924        -0.15083
C         42.85692        37.47731        -0.83775
C         41.47699        38.20440        -0.59614
C         42.69333        40.47022        -0.20532
C         41.57238        39.53572         0.19261
C         42.81089        41.79731         0.67664
C         41.55740        42.64167         0.47465
C         42.74976        44.60062        -0.50646
C         41.50444        43.89978        -0.15242
C         42.68715        45.91532        -1.05588
C         41.32914        46.35044        -1.59149
C         42.56541        48.56091        -1.91113
C         41.24761        48.10959        -2.35381
C         43.85829        25.27161        -1.29597
C         44.99595        26.74881         0.38706
C         43.97386        26.48354        -0.51875
C         44.97652        28.83708         0.87310
C         43.95133        29.43530         0.16901
C         45.05918        31.57884         0.88315
C         44.10904        30.92476        -0.16895
C         45.12699        33.10737         0.75222
C         43.95592        33.84782         0.21406
C         45.19289        36.00587         0.19066
C         44.06330        35.29482        -0.11653
C         45.20257        37.47044         0.08197
C         44.02425        38.15207        -0.11997
C         45.29811        40.37044        -0.06763
C         44.01140        39.65599        -0.25725
C         45.31589        41.85636         0.08914
C         44.05957        42.62052         0.32321
C         45.22484        44.66550        -0.56600
C         43.99543        43.99438        -0.24813
C         45.13161        46.05989        -0.94068
C         43.87516        46.66568        -1.16928
C         43.64851        48.01398        -1.65415
C         47.38971        27.27853         0.74610
C         46.41818        26.60025         0.38125
C         47.62792        28.65695         1.17213
C         46.30109        29.43816         1.14287
C         47.71611        31.59885         0.82972
C         46.40868        30.88715         0.77364
C         47.65647        33.08228         1.17830
C         46.45369        33.80772         0.48632
C         47.74003        35.96959         0.72618
C         46.36717        35.31029         0.91354
C         47.79392        37.43621         0.43997
C         46.54499        38.20141        -0.04625
C         47.78551        40.36316         0.18207
C         46.49535        39.64187         0.50932
C         47.78476        41.71057        -0.39077
C         46.50083        42.50810        -0.53019
C         47.73179        44.61599        -0.91962
C         46.50059        43.98561        -0.59235
C         47.53577        46.00532        -1.18687
C         46.42843        46.58875        -1.16442
C         50.19070        28.86434         1.25822
C         48.90458        29.42065         1.10250
C         50.20543        31.56740         1.28406
C         48.96757        30.83526         1.13488
C         50.22275        33.00961         1.23115
C         48.98586        33.79936         0.82626
C         50.26429        35.96786         1.04870
C         48.95000        35.26629         1.37070
C         50.30357        37.45679         1.06417
C         49.01022        38.22312         0.88462
C         50.35069        40.41600         0.30921
C         49.03335        39.73501         0.63151
C         50.20761        41.53820        -0.75067
C         49.07663        42.49151        -0.26441
C         50.21474        44.20762        -1.42807
C         48.96914        43.88119        -0.98389
C         51.30245        29.43489         1.40270
C         52.59537        31.68139         1.53540
C         51.46710        30.83552         1.44195
C         52.54376        32.93117         1.41553
C         51.41747        33.76329         1.22439
C         52.58367        36.02999         0.84265
C         51.42055        35.20197         1.01658
C         52.69314        37.23963         0.56816
C         51.65490        38.22594         0.89432
C         52.66387        40.18546        -0.51333
C         51.66431        39.64983         0.43552
C         52.63021        41.37856        -0.91107
C         51.56923        42.28434        -1.12284
C         51.35945        43.59318        -1.44953
O         32.98155        36.18217         2.25904
O         39.39880        34.16587         1.68155
O         48.10983        36.42549        -0.59640
O         51.08719        37.99926         2.18207
O         34.65779        29.21820        -1.99630
O         51.24030        40.63970         1.41964
O         36.69664        38.94505         2.64997
O         41.14753        27.74091        -2.51919
O         44.85863        40.03086        -1.41352
O         37.70816        40.76653        -0.57836
O         48.85391        39.15104         1.99296
O         41.37148        30.23432         1.03126
O         46.91528        29.00547         2.39177
O         32.81215        40.69746        -0.39371
O         44.66609        27.59716         1.47584
O         40.00220        46.79517         0.63716
O         47.09031        41.85339        -1.69176
O         45.07335        42.45960         1.39296
O         40.45179        40.99503         1.78546
O         44.21513        33.71531         1.70993
O         30.92530        42.58391        -0.60010
H         31.12116        41.74408        -1.07294
O         41.13256        47.93850        -3.71324
H         42.00271        47.70691        -4.09513
O         46.73938        38.35738        -1.46809
H         47.05313        37.49391        -1.82056
O         31.10302        33.53083         2.13993
H         32.59396        36.55021         3.08109
O         40.35270        31.71425        -2.19137
H         40.99924        32.40973        -2.44389
O         42.39718        40.93174        -1.54517
H         41.76693        40.29610        -1.95683
O         38.65097        37.27126         2.66238
H         38.34277        38.09741         3.10904
O         42.78183        35.35785        -2.10916
H         43.29183        35.98543        -2.67411
O         49.24917        42.77055         1.12610
H         50.15836        43.09916         1.28785
O         46.11497        35.42277         2.32738
H         45.23073        35.01215         2.50215
O         41.76016        25.45995        -3.60175
H         41.29335        26.29473        -3.83610
O         42.90035        41.39253         2.04126
H         43.80819        41.60809         2.36457
O         41.09370        45.56636        -2.74238
H         40.15453        45.64640        -3.01117
O         48.79250        35.30884         2.79312
H         49.61481        34.99397         3.22262
O         31.58236        31.02415        -2.62014
H         30.83926        30.49271        -2.97063
O         35.37990        33.50332        -1.96620
H         36.08986        32.90797        -2.32641
O         46.56138        33.78568        -0.94213
H         47.44122        34.15875        -1.19708
O         40.97559        37.53377         1.60533
H         40.44446        36.96286         2.20718
O         44.74055        31.03594        -1.46035
H         44.15883        30.63033        -2.13560
O         35.46747        35.03919         2.17463
H         34.62409        35.19767         2.66014
O         46.26265        39.60927         1.93166
H         47.13177        39.47612         2.38766
O         31.47427        35.34543        -0.84849
H         31.71212        35.24816        -1.79440
O         38.26034        37.87427        -0.89207
H         38.37074        36.99061        -1.30077
O         47.44992        33.08229         2.59427
H         47.25938        34.00896         2.89309
O         49.78753        40.86368        -1.93444
H         49.36399        41.49816        -2.55085
O         38.55132        26.86218         0.74922
H         37.94838        27.01554         1.50517
O         36.61311        30.98765         1.41414
H         35.77586        30.66602         1.80792
O         37.56883        31.83809        -2.01149
H         38.47183        31.84262        -2.41909
O         33.27224        37.05028        -1.18641
O         40.88019        38.46289        -1.88021
H         41.55467        38.22356        -2.56482
O         36.57293        35.88364        -1.20904
H         35.96960        35.28805        -1.72430
O         47.14588        31.18557        -0.45128
O         38.34117        27.46272        -2.79056
H         38.98541        27.33571        -3.51722
O         37.39894        45.18573        -1.27727
O         44.56158        31.25115         2.18181
H         43.95867        31.97464         2.47111
O         43.22875        37.76333        -2.22660
H         43.84151        38.53797        -2.24860
O         49.11528        33.92266        -0.61313
H         49.24465        33.02628        -0.99082
