         344
 CSIRO Nanostructure Databank - Neutral Graphene Oxide Data Set
C          1.43313         3.40882         0.17688
C          0.18392         4.06387        -0.01665
C          1.28808         6.25980         0.38270
C          0.09889         5.42675        -0.03301
C          1.23290         7.70476        -0.14096
C          0.05077         8.49239         0.37040
C          1.27772        10.59948         0.05639
C          0.08605         9.84386         0.40620
C          1.22822        12.05522        -0.08851
C         -0.00008        12.76181        -0.11160
C          1.16345        14.90424        -0.22551
C         -0.02874        14.14504        -0.16402
C          1.15663        16.35558        -0.22362
C         -0.09303        17.11580        -0.20694
C          1.14632        19.18618         0.37927
C         -0.12381        18.44128         0.03941
C          1.13521        20.69222         0.16387
C         -0.07954        21.43670         0.01312
C          1.11857        23.57824         0.45346
C         -0.09701        22.79728         0.03941
C          1.17180        25.00554        -0.05086
C          0.00531        25.73657        -0.30709
C          1.27808        27.78257        -0.64550
C          0.05251        27.09659        -0.62230
C          1.34958        29.19611        -0.90610
C          3.89138         3.48602         0.13912
C          2.63564         4.13422         0.09955
C          3.71800         6.29559        -0.38581
C          2.58879         5.58562        -0.01436
C          3.74263         7.73077        -0.38289
C          2.54070         8.44061         0.19561
C          3.70877        10.61025        -0.35470
C          2.48165         9.91830        -0.12895
C          3.74291        12.08008        -0.00614
C          2.42660        12.78617        -0.19864
C          3.64194        14.93491        -0.40138
C          2.40613        14.20641        -0.27357
C          3.61640        16.36714        -0.31514
C          2.35538        17.05235        -0.21560
C          3.61701        19.25564        -0.00351
C          2.32452        18.56117        -0.36617
C          3.61980        20.64500         0.17802
C          2.36251        21.38137         0.19861
C          3.62803        23.49451         0.21677
C          2.40037        22.80904         0.22103
C          3.65346        24.93243         0.10463
C          2.42858        25.65911        -0.10744
C          3.72475        27.75241        -0.34467
C          2.48038        27.06054        -0.38012
C          3.76877        29.16948        -0.56876
C          2.54113        29.86140        -0.86636
C          6.27141         3.49391        -0.41557
C          5.06782         4.15253        -0.28699
C          6.19908         6.33282        -0.81011
C          4.92000         5.53264        -0.90728
C          6.14352         7.72452        -0.83218
C          4.90892         8.45308        -0.66634
C          6.11387        10.67580        -0.82260
C          4.90393         9.91717        -0.61791
C          6.11224        12.07944        -0.82990
C          4.92098        12.82707        -0.56799
C          6.07464        15.00880        -0.99730
C          4.85877        14.22307        -0.65347
C          6.07109        16.47304        -0.68986
C          4.81226        17.11752        -0.29401
C          6.06107        19.21382         0.20382
C          4.83570        18.53240        -0.03364
C          6.09299        20.61714         0.32608
C          4.86131        21.34940         0.27977
C          6.11170        23.47298         0.36994
C          4.87263        22.77163         0.28748
C          6.11674        24.89782         0.31510
C          4.88771        25.61603         0.11970
C          6.15415        27.74194         0.01812
C          4.92391        27.04093        -0.06580
C          6.18984        29.16372        -0.17286
C          4.98728        29.84964        -0.48262
C          8.71958         3.47634        -0.74627
C          7.43602         4.15603        -1.09451
C          8.65676         6.32945        -0.63269
C          7.44748         5.64442        -0.83587
C          8.66136         7.76656        -0.60850
C          7.41277         8.45177        -0.99715
C          8.64868        10.63054        -0.64984
C          7.39741         9.95828        -1.02917
C          8.68612        12.07423        -0.84306
C          7.38364        12.79972        -1.09841
C          8.63979        14.99624        -0.60593
C          7.40153        14.30128        -1.05002
C          8.61694        16.35426        -0.29717
C          7.37181        17.15652        -0.38834
C          8.58794        19.19770         0.36407
C          7.30694        18.40947         0.46409
C          8.58068        20.60204         0.39545
C          7.35375        21.32170         0.42169
C          8.57368        23.47250         0.63962
C          7.35506        22.75705         0.46681
C          8.56066        24.90296         0.68996
C          7.34162        25.60961         0.44174
C          8.57410        27.74478         0.47382
C          7.35951        27.03401         0.31251
C          8.60629        29.17931         0.29984
C          7.41986        29.85198        -0.04234
C         11.14360         3.49155        -0.44662
C          9.92417         4.16867        -0.54407
C         11.06226         6.34027        -0.14198
C          9.90832         5.63562        -0.46588
C         11.03778         7.78266         0.03136
C          9.80990         8.48383        -0.29599
C         10.98790        10.66332         0.05500
C          9.80439         9.93566        -0.29302
C         11.03148        12.06927        -0.04413
C          9.88194        12.81951        -0.44216
C         11.05647        14.92271        -0.06129
C          9.85141        14.23279        -0.37505
C         11.04590        16.33688         0.13036
C          9.80022        17.05363         0.12741
C         11.03115        19.12198         0.88969
C          9.78544        18.44769         0.37283
C         11.07774        20.59752         0.66994
C          9.88538        21.35034         0.15769
C         11.01771        23.45417         0.93497
C          9.84507        22.78067         0.66571
C         10.99886        24.88884         1.40302
C          9.75555        25.63670         0.93634
C         10.94614        27.81979         1.20286
C          9.74904        27.03512         0.85353
C         11.02342        29.24472         0.82516
C          9.83620        29.88345         0.42881
C         13.59583         3.46242         0.11803
C         12.44357         4.23632        -0.46953
C         13.36315         6.26069         0.68759
C         12.31087         5.63386         0.09710
C         13.34898         7.73053         1.01121
C         12.15005         8.46622         0.47866
C         13.48443        10.61645         0.55190
C         12.12444         9.95304         0.74865
C         13.50716        12.06197         0.37023
C         12.27941        12.76455         0.16474
C         13.52259        14.86123        -0.03774
C         12.28682        14.17792         0.04788
C         13.48684        16.31872        -0.18517
C         12.26802        17.05008         0.20069
C         13.51112        19.16775         0.41831
C         12.31094        18.44681         0.42788
C         13.57716        20.59456         0.59854
C         12.32460        21.30146         1.10888
C         13.46753        23.48010         0.63096
C         12.30580        22.78899         0.84182
C         13.49434        24.99234         0.48575
C         12.25939        25.63202         1.05471
C         13.53301        27.81050         1.15118
C         12.29505        27.04575         1.31529
C         13.50768        29.21092         0.98459
C         12.26640        29.90217         0.84378
C         15.89528         3.35104         1.12245
C         14.62893         4.06760         0.72324
C         15.77708         6.21236         0.23481
C         14.64276         5.54066         1.04082
C         15.81710         7.70627         0.48292
C         14.66405         8.42090         0.65459
C         15.96543        10.56979         0.67860
C         14.65226         9.88433         0.64524
C         16.00494        12.08877         0.55336
C         14.72892        12.77535         0.29953
C         16.01543        14.88875        -0.09927
C         14.75290        14.17328         0.02123
C         16.05086        16.27700        -0.11268
C         14.79512        17.04003        -0.13514
C         16.09280        19.15818         0.28535
C         14.79037        18.43349         0.35833
C         16.04438        20.63120        -0.05107
C         14.75032        21.29268         0.40133
C         16.04891        23.51846         0.37277
C         14.73705        22.76689         0.35478
C         16.04889        24.94355         0.71258
C         14.75698        25.55005         1.23007
C         16.08207        27.84055         0.93899
C         14.78896        27.07634         1.26507
C         15.94668        29.25772         0.54353
C         14.73070        29.91109         0.70097
C         18.34592         3.40923         0.54285
C         17.12453         4.12170         0.66490
C         18.31042         6.19269         0.12327
C         17.09570         5.49340         0.41109
C         18.34690         7.61832         0.09307
C         17.16790         8.36623         0.66908
C         18.48720        10.54215         0.48137
C         17.16661         9.83063         0.33564
C         18.44881        11.99806         0.05198
C         17.27506        12.73349         0.13226
C         18.47246        14.82035        -0.37640
C         17.27673        14.15006        -0.13825
C         18.47436        16.28529        -0.76369
C         17.27762        17.03221        -0.24142
C         18.55347        19.16378        -0.19857
C         17.30917        18.40506        -0.11022
C         18.55956        20.56499         0.03883
C         17.31119        21.27798         0.54700
C         18.51182        23.46708         0.34024
C         17.34647        22.78642         0.37669
C         18.57835        24.97824         0.42942
C         17.23557        25.67331         0.55730
C         18.48983        27.80380         0.05367
C         17.25185        27.07581         0.51169
C         18.20175        29.19747        -0.47172
C         17.04607        29.88544        -0.10881
C         19.50158         4.04378         0.13400
C         20.70351         6.14973        -0.41082
C         19.51414         5.44875        -0.06389
C         20.71185         7.52117        -0.49182
C         19.54931         8.29770        -0.18053
C         20.74628        10.44527        -0.54809
C         19.62729         9.75251        -0.12721
C         20.81014        11.85896        -0.55190
C         19.68729        12.64930        -0.29250
C         20.90831        14.82270        -0.51547
C         19.71757        14.09797        -0.41652
C         20.93230        16.24500        -0.50070
C         19.77917        17.00190        -0.51370
C         20.97547        19.19950        -0.43213
C         19.77599        18.46071        -0.41010
C         20.96616        20.58119        -0.27274
C         19.76944        21.27736        -0.03021
C         20.56236        23.43354        -0.99302
C         19.85374        22.77806         0.18400
C         20.35241        24.72404        -1.35460
C         19.41793        25.58853        -0.67714
C         20.21603        27.65670        -1.78086
C         19.36114        26.96792        -0.87716
C         20.15796        29.04111        -1.93446
C         19.16517        29.80495        -1.30912
O          8.17042        12.34850        -2.23349
O          6.72620        14.76527        -2.27876
O          6.79091        17.28078        -1.70762
O         11.50068        27.49270         2.50289
O          7.49945         9.18040        -2.27987
O         16.10771        11.47128         1.89232
O         15.66174        27.57012         2.33700
O         15.58236        18.70774         1.57503
O         14.09539        16.87247        -1.41794
O         15.32921        23.26514        -0.95691
O         13.29954         7.85431         2.49577
H         12.57889         7.26538         2.80868
O          1.01064        23.71233         1.92829
H          1.07926        22.80844         2.30350
O          2.10519        18.82562        -1.78321
H          2.85659        18.44147        -2.28225
O         14.62986        25.08969         2.60151
H         15.19095        25.68656         3.14809
O         17.36936         8.28896         2.13398
H         18.07881         8.95129         2.34893
O          4.68590         5.30786        -2.32915
H          5.47056         4.80612        -2.66745
O         20.65960        22.98224         1.37200
H         20.46456        23.89911         1.69353
O          2.72076         8.39544         1.64244
H          3.54464         8.88302         1.85251
O          1.10308         7.60642        -1.57613
H          1.08646         8.51380        -1.94602
O         10.91340        24.83250         2.87068
H         11.02565        25.76158         3.18982
O         16.12126        20.71515        -1.48878
H         15.90559        21.64891        -1.73399
O          1.39022        18.98753         1.80434
H          0.58562        19.26246         2.29080
O         19.32164        28.00620         1.26788
H         20.10137        28.53639         0.99464
O          7.21991        17.91866         1.84327
H          7.41343        18.66702         2.44648
O         18.75216        10.59610         1.95124
H         17.97548        11.08573         2.32700
O          3.96703        12.08324         1.47094
H          3.14842        11.72940         1.88224
O         13.60538        25.35848        -0.91148
H         14.25114        24.72184        -1.31381
O         17.24129        21.05307         1.97912
H         18.09295        21.33577         2.37447
O         15.92860         2.01112         0.63097
H         15.91450         2.04211        -0.34738
O         18.31149        16.29159        -2.23661
H         19.09463        15.83682        -2.61373
O          7.21674         4.00578        -2.56577
H          7.96484         4.45317        -3.01776
O         12.41035        21.17709         2.58579
H         13.22645        21.63615         2.88104
O         14.93599         5.67509         2.44385
H         14.86137         6.62848         2.68359
O         11.83397        10.12042         2.18363
H         12.49142         9.55335         2.65939
O          1.21417         6.31681         1.83503
H          1.29856         5.40010         2.17103
O         19.28335        25.26787         1.68582
H         19.37369        26.25654         1.75132
O         10.02632        21.44039        -1.31122
H          9.21122        21.86201        -1.65806
O         12.80345         4.44413        -1.88723
H         13.64028         4.96608        -1.88143
O         15.39900         6.03064        -1.17363
H         16.13432         6.36913        -1.72766
O         10.98628        18.88627         2.34932
H         11.58389        19.55674         2.76729
H          1.46683         2.31269         0.25288
H         -0.71548         3.45051        -0.17555
H         -0.87247         5.91947        -0.18483
H         -0.87934         7.96125         0.62110
H         -0.81154        10.39600         0.72006
H         -0.95067        12.21357        -0.06838
H         -1.00328        14.65088        -0.14582
H         -1.03832        16.58431        -0.38783
H         -1.09520        18.95449         0.09897
H         -1.01849        20.89701        -0.17814
H         -1.05491        23.31970        -0.08969
H         -0.97730        25.24903        -0.25064
H         -0.88013        27.64392        -0.82126
H          0.41738        29.73741        -1.12490
H          3.94064         2.41773         0.40132
H          2.58079        30.94448        -1.05367
H          6.37543         2.45477        -0.06718
H          5.01571        30.93794        -0.64185
H          8.74642         2.37796        -0.81727
H          7.44314        30.94173        -0.19162
H         11.15833         2.39230        -0.50229
H          9.85766        30.96033         0.20461
H         13.64948         2.38360        -0.10103
H         12.29405        30.97616         0.60660
H         15.93265         3.28645         2.24367
H         14.66450        30.97808         0.43906
H         18.34297         2.32737         0.73805
H         16.91835        30.92160        -0.46004
H         20.43145         3.47326        -0.00414
H         21.62786         5.58065        -0.58681
H         21.65612         8.02610        -0.73435
H         21.62428         9.90634        -0.93038
H         21.75331        12.32974        -0.86139
H         21.87271        14.29677        -0.50886
H         21.91645        16.73031        -0.43037
H         21.93640        18.69055        -0.58776
H         21.91595        21.13306        -0.29477
H         21.31259        22.84275        -1.54003
H         20.93826        25.13717        -2.18968
H         20.93199        27.08941        -2.39084
H         20.85714        29.53266        -2.62532
H         19.06031        30.87093        -1.55872
