         658
 CSIRO Nanostructure Databank - Neutral Graphene Oxide Data Set
C          5.83228        31.93034        -0.37943
C          5.81581        33.27858        -0.52052
C          8.26912        27.63491         0.14481
C          8.30088        29.09400        -0.24433
C          7.09801        29.80694        -0.20194
C          8.23278        31.80584        -1.00732
C          7.05726        31.16578        -0.55739
C          8.12174        33.19386        -1.58874
C          6.97932        33.99956        -1.00808
C          8.13851        36.11152        -1.71295
C          6.99042        35.34903        -1.10533
C          8.33563        37.42867        -1.00105
C         10.80156        23.40700         0.58874
C         10.79988        24.78389         0.27978
C          9.60316        25.54620         0.33642
C         10.79326        27.57686        -0.28538
C          9.59202        26.90865         0.04106
C         10.78488        29.04729        -0.45943
C          9.49099        29.75872        -0.59060
C         10.69560        31.83016        -1.36977
C          9.46740        31.12323        -0.98631
C         10.65847        33.19249        -1.63764
C          9.43178        33.94780        -1.58014
C         10.68802        36.05795        -1.80201
C          9.43899        35.32168        -1.71194
C         10.58219        37.56775        -2.02932
C          9.47861        38.17413        -1.15655
C         10.76475        40.27970        -0.82272
C          9.57460        39.52191        -0.73452
C         10.77715        41.60264        -0.35610
C         13.20723        19.08504         1.29904
C         12.76838        20.22750         0.60985
C         11.87043        21.24276         0.96790
C         13.16487        23.21111        -0.02415
C         11.93986        22.58392         0.44480
C         13.17636        24.62829        -0.21714
C         12.02616        25.43240        -0.09190
C         13.21491        27.53522        -0.77402
C         12.02904        26.86443        -0.35980
C         13.23331        28.90576        -1.22588
C         12.02718        29.72774        -0.96863
C         13.12176        31.73880        -1.89616
C         11.95156        31.10999        -1.50121
C         13.17907        33.18232        -1.94449
C         11.87525        33.90068        -2.18775
C         13.16252        36.07710        -1.66353
C         11.87369        35.38142        -1.89993
C         13.24765        37.54972        -1.86585
C         11.92246        38.31572        -1.90002
C         13.21612        40.31014        -1.19694
C         11.98963        39.66056        -1.31987
C         13.19723        41.76566        -0.91688
C         11.97355        42.37547        -0.33111
C         13.27744        44.39161         0.49679
C         12.01220        43.64001         0.20321
C         13.17833        45.88780         0.19581
C         15.87688        15.21409         2.40575
C         15.83299        16.46972         1.81112
C         14.59107        17.15372         1.65405
C         15.68543        19.05779         0.53627
C         14.47169        18.43038         1.08289
C         15.72390        20.37844         0.05205
C         14.53028        21.12973        -0.22165
C         15.72105        23.27930        -0.07437
C         14.42287        22.50110        -0.08324
C         15.52106        24.38234        -1.12207
C         14.45766        25.29791        -0.53554
C         15.56927        27.29060        -1.65634
C         14.47492        26.77779        -0.79865
C         15.65035        28.77954        -1.78350
C         14.36928        29.52476        -1.72965
C         15.64421        31.73626        -2.07157
C         14.35619        30.94939        -2.26764
C         15.63990        33.10271        -1.92334
C         14.39056        33.83923        -1.83068
C         15.71675        36.05658        -1.55511
C         14.43912        35.30347        -1.56168
C         15.70558        37.46601        -1.36839
C         14.48774        38.22797        -1.45052
C         15.74533        40.33185        -1.08459
C         14.48344        39.62073        -1.28901
C         15.75210        41.70163        -0.86080
C         14.50328        42.47707        -0.75543
C         15.72440        44.47171         0.07334
C         14.54296        43.78985        -0.07765
C         15.69316        45.89733         0.45256
C         14.49753        46.57927         0.44744
C         15.72696        48.73510         0.92767
C         14.41588        48.07234         0.60149
C         15.77046        50.09208         1.11863
C         18.28685        10.87264         3.40345
C         18.00428        12.26260         3.38789
C         17.07228        13.03533         2.72992
C         18.42487        15.25146         2.48129
C         17.11186        14.53814         2.94514
C         18.33738        16.53337         1.70610
C         17.03276        17.14195         1.36410
C         18.20454        19.03454         0.32168
C         16.95952        18.37366         0.72083
C         18.21040        20.35839        -0.08690
C         16.97556        21.10244        -0.13692
C         18.22251        23.28634        -0.55694
C         16.95715        22.46864        -0.35431
C         18.03133        24.53072        -1.43390
C         16.78388        25.08836        -1.55595
C         18.35694        27.52244        -2.51933
C         16.50020        26.40735        -2.11832
C         18.23034        28.84501        -2.26689
C         16.92393        29.53966        -2.05695
C         18.13084        31.69975        -1.75850
C         16.93161        31.01601        -2.43631
C         18.22328        33.17579        -1.91296
C         16.90691        33.90473        -1.98999
C         18.17143        35.95518        -1.33277
C         16.93960        35.33657        -1.62827
C         18.13807        37.35639        -0.89567
C         16.93230        38.16310        -1.12517
C         18.25839        40.23932        -0.87227
C         16.99034        39.56932        -1.03746
C         18.31031        41.71432        -0.88609
C         16.99935        42.48373        -0.83560
C         18.19842        44.44808         0.07971
C         17.00376        43.83951        -0.23841
C         18.18820        45.75304         0.85195
C         16.94069        46.58913         0.68664
C         18.17527        48.68584         1.17899
C         16.94625        47.96247         0.95921
C         18.21227        50.03803         1.53074
C         16.96861        50.80941         1.47707
C         17.87370        53.01481         2.16301
C         16.86975        52.20796         1.53542
C         18.34764        54.27297         1.85578
C         20.97625         7.16334         5.17685
C         20.89200         8.34887         4.37701
C         19.67150         9.03788         4.19702
C         20.84245        11.01468         3.31962
C         19.60076        10.35148         3.67223
C         20.91406        12.37662         2.82925
C         19.88813        13.31639         3.08915
C         20.77197        14.91357         1.50659
C         19.70767        14.48582         2.34849
C         20.75293        16.26339         0.96032
C         19.54108        17.05579         1.02081
C         20.72619        19.02765         0.16963
C         19.46384        18.31530         0.44583
C         20.71602        20.34095        -0.50554
C         19.49003        21.16110        -0.18723
C         20.66085        23.08768        -1.35261
C         19.33601        22.38120        -1.10551
C         20.64384        24.52075        -1.60003
C         19.34894        25.27896        -1.54385
C         20.78206        27.36968        -2.05013
C         19.47115        26.72063        -1.97601
C         20.77922        28.84784        -2.00550
C         19.48625        29.58670        -2.01607
C         20.67780        31.72731        -1.36213
C         19.40955        30.97375        -1.48223
C         20.68446        33.11628        -1.33622
C         19.45921        33.86594        -1.48876
C         20.69245        35.96481        -1.11982
C         19.42847        35.24858        -1.28184
C         20.70271        37.34844        -1.02843
C         19.48037        38.08801        -0.72456
C         20.74386        40.23984        -0.64587
C         19.48054        39.55854        -0.77961
C         20.74941        41.66804        -0.35256
C         19.52834        42.39044        -0.40923
C         20.69341        44.43173         0.25189
C         19.47639        43.75723        -0.05352
C         20.65122        45.85712         0.51453
C         19.46473        46.52673         0.65474
C         20.66894        48.79485         0.61541
C         19.40376        48.00284         0.72658
C         20.71547        50.11990         1.26317
C         19.52702        50.66357         1.75231
C         20.77418        52.67767         2.52888
C         19.65819        51.86402         2.51753
C         20.62984        54.05317         3.17054
C         19.50073        54.90720         2.48162
C         20.44433        57.18635         3.04648
C         19.50531        56.28863         2.40575
C         20.83095        58.39050         2.50565
C         23.64516         5.10500         6.80359
C         22.38119         5.60476         6.50437
C         23.37096         6.85561         4.62100
C         22.19615         6.53611         5.44588
C         23.29635         8.14378         3.74214
C         22.06926         8.92849         3.82169
C         23.24580        10.75179         2.67984
C         22.05030        10.24285         3.29902
C         23.13708        11.93304         1.81991
C         21.97683        12.82225         2.00317
C         23.05802        14.51827         0.51992
C         21.93317        14.09353         1.39559
C         23.01430        15.93427        -0.03429
C         21.91073        16.80150         0.40029
C         23.35402        18.86905        -0.15385
C         22.01713        18.25554         0.24646
C         23.22837        20.39891        -0.50572
C         21.86712        20.95624        -0.92306
C         23.08352        22.94143        -2.01696
C         21.83514        22.35819        -1.35605
C         23.09392        24.46357        -2.09184
C         21.84066        25.20171        -1.81360
C         23.20774        27.36349        -1.78073
C         21.92932        26.65030        -1.84990
C         23.23338        28.78259        -1.50307
C         21.94664        29.47428        -1.31878
C         23.18498        31.68160        -0.96781
C         21.90451        30.96478        -1.07625
C         23.16869        33.05597        -0.97392
C         21.94083        33.82648        -1.14981
C         23.20073        35.97085        -1.02880
C         21.94635        35.22131        -1.12147
C         23.18824        37.35055        -1.09501
C         21.93583        38.13723        -1.37188
C         23.21065        40.19774        -0.58413
C         21.96378        39.53928        -0.77514
C         23.23858        41.54879         0.09954
C         21.95401        42.34616        -0.05493
C         23.19317        44.48055         0.32461
C         21.94225        43.74230         0.19739
C         23.20575        45.85357         0.46593
C         21.93831        46.57242         0.85032
C         23.21592        48.75927         0.69631
C         21.94811        48.03248         0.45561
C         23.18038        50.17288         1.09410
C         21.97830        50.81174         1.42431
C         23.20030        52.87166         2.11871
C         21.99010        52.15889         1.97669
C         23.21929        54.13159         2.79507
C         21.99798        54.73440         3.22101
C         23.31463        56.67688         3.95261
C         22.11036        55.95960         3.86607
C         23.24219        58.78784         3.33705
C         22.07051        59.16324         2.63022
C         23.47784        60.85834         1.52972
C         22.23297        60.25057         1.73697
C         24.79671         5.51857         6.10916
C         25.83809         6.93929         4.35204
C         24.70746         6.41909         5.03328
C         25.77156         8.08502         3.54785
C         24.55641         8.78661         3.37885
C         25.71254        10.73953         2.36961
C         24.49250        10.09154         2.78510
C         25.69982        11.94010         1.66486
C         24.42071        12.51717         1.22202
C         25.58793        14.53134         0.41376
C         24.39932        13.90032         0.71349
C         25.60126        15.80708        -0.34261
C         24.28937        16.52322        -0.57816
C         25.58841        18.61448        -1.36072
C         24.28330        17.98167        -0.99797
C         25.59256        20.11997        -1.62185
C         24.36341        20.92163        -1.37136
C         25.66444        23.11603        -1.30228
C         24.37874        22.38770        -1.47986
C         25.67884        24.52260        -1.84914
C         24.39441        25.21734        -2.07172
C         25.64838        27.44485        -2.18991
C         24.39537        26.67923        -1.88071
C         25.66437        28.82949        -1.59503
C         24.43598        29.46545        -1.29744
C         25.71558        31.58499        -0.91188
C         24.42787        30.83734        -0.64613
C         25.70229        33.00371        -0.50652
C         24.40398        33.79157        -0.59761
C         25.66693        35.92385        -0.78347
C         24.45836        35.25663        -0.80959
C         25.73320        37.36087        -1.10045
C         24.43533        38.12049        -1.19589
C         25.69373        40.23593        -0.75772
C         24.44026        39.55950        -0.85217
C         25.67178        41.75279        -0.86635
C         24.45059        42.36308        -0.22730
C         25.65480        44.53911        -0.27981
C         24.51886        43.73433         0.37756
C         25.75842        46.02383         0.16114
C         24.42896        46.61942         0.54399
C         25.69627        48.65839         1.15215
C         24.44965        47.96804         0.85661
C         25.71272        50.06644         1.32220
C         24.47341        50.85642         1.15218
C         25.72953        52.84622         2.19124
C         24.47009        52.31010         1.64168
C         25.70958        54.17212         2.71768
C         24.47608        54.82647         2.96124
C         25.72600        56.97889         3.33468
C         24.50722        56.17886         3.43655
C         25.70756        58.39239         3.22364
C         24.54430        59.18871         2.93329
C         24.63871        60.31389         2.07185
C         27.01947         8.63423         2.88580
C         28.22296        10.78799         2.27902
C         27.01010        10.17707         2.91238
C         28.17715        12.00076         1.60809
C         26.90924        12.64046         1.33452
C         28.08383        14.57141         0.35054
C         26.87070        13.90486         0.69462
C         28.07133        15.93787        -0.15358
C         26.87601        16.54234        -0.48724
C         28.14519        18.59038        -1.38272
C         26.85351        18.03517        -0.73414
C         28.09480        20.11503        -1.23218
C         26.92267        20.82571        -1.89945
C         28.12250        23.00607        -1.62785
C         26.92888        22.32539        -1.61389
C         28.13794        24.45205        -2.10837
C         26.86187        25.22658        -1.90874
C         28.12795        27.37043        -1.91776
C         26.91869        26.66350        -1.97234
C         28.09790        28.81289        -1.85124
C         26.89891        29.52084        -1.58513
C         28.12385        31.72779        -1.39859
C         26.88812        30.96364        -1.29911
C         28.19669        33.05224        -1.02424
C         27.00100        33.74237        -0.50109
C         28.21025        35.97980        -0.88226
C         26.96194        35.25340        -0.54444
C         28.18081        37.40293        -0.84517
C         26.97793        38.11206        -0.83269
C         28.18042        40.27330        -0.57020
C         26.92855        39.54998        -0.77702
C         28.17148        41.66180        -0.29847
C         26.94930        42.42241        -0.37710
C         28.15343        44.43767         0.36279
C         26.95022        43.77209        -0.09061
C         28.11625        45.71319         0.91684
C         26.80098        46.37610         1.23519
C         28.08436        48.56848         1.63034
C         26.88300        47.90282         1.32802
C         28.11472        49.96587         1.81785
C         26.90877        50.72086         1.72541
C         28.11613        52.63975         2.87627
C         26.90360        52.09673         2.15310
C         28.15620        54.13973         2.88523
C         26.96836        54.86328         2.95385
C         26.93888        56.27642         3.16639
C         29.37141        12.65340         1.15063
C         30.60864        14.56606         0.10744
C         29.32893        13.89843         0.55766
C         30.55259        16.07484         0.41099
C         29.32337        16.70942        -0.20864
C         30.60464        18.77119        -0.67609
C         29.37154        17.98625        -0.70996
C         30.61698        20.12725        -0.89242
C         29.35501        20.88654        -1.03730
C         30.58943        23.01190        -1.39072
C         29.39149        22.32425        -1.41361
C         30.62265        24.44190        -1.80673
C         29.38170        25.23448        -1.81436
C         30.66250        27.33008        -1.73619
C         29.39480        26.61771        -1.85301
C         30.65223        28.80860        -1.90360
C         29.35822        29.56063        -2.05356
C         30.58138        31.62576        -1.18492
C         29.37434        31.10250        -1.99597
C         30.64357        33.13856        -1.22752
C         29.43958        33.82325        -1.10566
C         30.67725        35.97998        -0.97728
C         29.41431        35.26781        -1.02241
C         30.69460        37.37758        -0.74911
C         29.45622        38.16567        -1.06327
C         30.59802        40.19012        -0.10846
C         29.41449        39.56101        -0.49778
C         30.62866        41.59724         0.08285
C         29.40167        42.33341         0.00281
C         30.63215        44.36710         0.64188
C         29.40218        43.71198         0.32391
C         30.62978        45.70059         1.10830
C         29.34238        46.32449         1.42615
C         30.62417        48.52187         1.78556
C         29.33464        47.79695         1.81752
C         30.60725        49.91345         1.90913
C         29.38458        50.64903         2.06923
C         29.38904        51.97659         2.44459
C         31.83092        16.76067         0.03695
C         33.09825        18.77049        -0.56433
C         31.86720        18.07427        -0.38566
C         33.14280        20.17124        -0.77562
C         31.85176        20.93120        -0.58468
C         33.05742        23.00634        -1.19187
C         31.86133        22.33700        -1.15502
C         33.08336        24.50028        -1.02268
C         31.91944        25.18918        -1.71258
C         33.13622        27.36111        -1.33393
C         31.85796        26.65787        -1.63256
C         33.14887        28.84398        -1.41161
C         31.89365        29.58218        -1.64956
C         33.18006        31.69082        -1.65927
C         31.88033        30.93192        -1.52242
C         33.11203        33.12146        -1.20991
C         31.91328        33.82416        -1.18630
C         33.11191        35.98550        -0.83593
C         31.90462        35.27091        -1.01512
C         33.09501        37.32267        -0.40056
C         31.87492        38.02470        -0.35447
C         33.09197        40.13876         0.35798
C         31.78754        39.37134         0.33415
C         33.11356        41.51152         0.35574
C         31.87034        42.27124         0.29522
C         33.10426        44.39549         0.69858
C         31.87789        43.66511         0.52066
C         33.07865        45.72087         1.06921
C         31.84311        46.41064         1.31900
C         31.82484        47.78747         1.64390
C         34.32540        20.84051        -1.01100
C         35.57893        23.05223        -0.87895
C         34.37506        22.28936        -1.40264
C         35.64538        24.40862        -0.99342
C         34.41231        25.13953        -1.38309
C         35.75607        27.40966        -1.38237
C         34.44106        26.62186        -1.50388
C         35.54160        28.79477        -0.76548
C         34.42177        29.58391        -1.25823
C         35.43166        31.68481        -0.33299
C         34.37722        30.94064        -1.12282
C         35.63090        33.10115        -0.77379
C         34.40855        33.82325        -1.20058
C         35.65467        35.96315        -0.59894
C         34.40365        35.31144        -1.03205
C         35.63865        37.25397        -0.16138
C         34.34529        37.93187         0.12117
C         35.66551        40.07190         0.86607
C         34.33104        39.35576         0.60103
C         35.55375        41.56422         0.67927
C         34.39074        42.22586         0.48819
C         34.41383        43.73254         0.34146
C         36.85720        25.18879        -0.79532
C         38.27675        27.19515        -0.91775
C         36.94684        26.55133        -0.89939
C         38.46838        28.40404        -0.29880
C         36.52898        29.47966        -0.09013
C         37.96961        31.51546        -0.11411
C         36.70744        30.90424        -0.15746
C         38.01674        32.96919        -0.20837
C         36.82125        33.73265        -0.56015
C         38.12249        35.87308        -0.18044
C         36.95075        35.22144        -0.87644
C         38.07500        37.30814         0.02095
C         36.88783        37.98968         0.01673
C         36.79702        39.49876        -0.02118
C         39.47341        29.42491        -0.39202
C         40.45733        31.58152        -0.02351
C         39.25590        30.78646        -0.13593
C         40.44027        32.93961         0.11680
C         39.21465        33.67033        -0.01514
C         39.22406        35.11380         0.10464
O         23.72604        24.87338        -3.37182
O         20.36445        29.55369        -3.22527
O         24.55613        51.99029         0.21620
O         34.14758        38.25627         1.57719
O         19.81942        48.65923        -0.56395
O         17.69941        33.62610        -3.21732
O         13.41061        20.41548        -0.63803
O         30.08917        29.11349        -3.25429
O         17.33754        26.82430        -3.15856
O         37.46181        28.74382         0.63161
O         11.69967        29.72786         0.47975
O         18.42742        31.22192        -0.42105
O         18.74412        37.56256         0.43225
O         34.56940        34.70850        -2.38547
O         33.02530        28.10254        -0.07899
O         31.50041        24.64196        -2.99655
O         25.18657        37.75278        -2.42094
O         23.19895        57.96884         4.48362
O         24.91219        33.29559         0.69784
O         10.08006        37.70501        -3.33167
O         16.50565        29.34019        -0.67177
O         34.43258        25.77021        -2.70640
O         12.72751        38.10608        -3.09793
O         27.15988        34.52085         0.72157
O         23.12804         6.79999         3.19057
O         23.54390        11.64369         0.43640
O         24.85578        15.68738        -1.61339
O         21.68049        29.96752         0.02276
O         19.29067        26.34782        -0.52974
O         17.75562        42.35261        -2.08893
O         20.97134        56.68124         4.26335
O         13.74372        42.55250        -2.03531
O         18.98273        13.01402         4.10124
O         28.40292        20.60242         0.09792
O         18.52592        52.31173         3.19922
O         24.61781        20.35883        -2.70555
O         18.57396        16.51709         3.20232
O         22.68816        48.45877        -0.70752
O         24.72202        18.02789        -2.37963
O         21.54522        19.03254         1.41838
O         29.22663        46.76797         2.85394
O         14.91086        26.21568         0.49703
O         22.59717        14.78316        -0.84118
O         13.66734        35.68195        -0.33110
O         30.43265        16.16071         1.87232
H         30.59490        17.09278         2.13029
O         25.58609        27.65834        -3.66126
H         25.47940        26.77514        -4.07820
O         23.43174        21.12581         0.75372
H         22.60946        21.01334         1.28658
O         21.89392        38.31957        -2.83222
H         22.78420        38.61656        -3.12098
O         33.41509        31.78043        -3.11264
H         32.80217        32.45269        -3.47996
O         17.08148        31.08474        -3.87544
H         17.26627        32.03316        -4.09833
O         31.76186        21.18396         0.87201
H         30.81690        21.34374         1.08645
O         27.06467        10.52091         4.34162
H         27.13915        11.49604         4.41036
O         26.78933        18.60071         0.61105
H         27.68117        18.53531         1.01609
O         26.37280        45.89068         2.52524
H         27.12296        46.02447         3.14707
O         23.31472        41.24561         1.56638
H         22.49812        40.75357         1.80250
O         17.01544        14.76804         4.37964
H         17.40571        15.65822         4.54215
O         34.81520        31.80139         1.01702
H         34.75799        30.89391         1.38876
O         27.14792        20.69308        -3.33398
H         26.26593        20.79812        -3.76510
O         21.95365        46.63123         2.32022
H         21.99950        45.71260         2.66136
O         18.64361        23.81546         0.71402
H         17.89661        24.34801         1.07473
O         29.52966        38.36506        -2.52885
H         28.64518        38.66465        -2.83111
O         25.58744        41.98251        -2.31992
H         26.44792        41.72131        -2.70967
O         36.49486        39.87607        -1.37328
H         37.14781        39.45323        -1.96832
O         27.08609         8.15739         1.53856
H         26.22916         8.33910         1.10009
O         18.20059        45.36411         2.27937
H         17.32615        44.96721         2.48121
O         13.88308        48.63442        -0.62957
H         14.60397        48.63220        -1.29413
O         20.22335        53.86509         4.54480
H         20.11307        54.75830         4.93882
O         24.39394        30.58839         0.78908
H         24.44940        31.47169         1.22771
O         37.21398        35.34616        -2.30682
H         36.38578        35.05640        -2.76498
O         31.73831        14.00606         0.77098
H         31.70758        14.33184         1.69652
O         36.05008        39.85314         2.23953
H         35.55096        39.06320         2.55462
O          7.79081        33.01505        -3.00773
H          7.62581        33.91267        -3.37556
O         30.30193        31.25060         0.19783
H         31.00279        31.62802         0.76983
O         32.91894        24.74143         0.41043
H         32.53920        23.93896         0.82791
O         19.77319        21.62653         1.16118
H         19.87156        20.83794         1.73690
O         24.12103        18.77062         1.08424
H         24.07163        19.64418         1.54108
O         14.94247        23.79773        -2.31294
H         15.59980        23.19126        -2.71459
O         15.92789        23.91858         1.21315
H         15.99675        23.21839         1.89507
O         25.32639        44.53974        -1.68039
H         25.87925        45.23741        -2.10203
O         11.71562        33.80258        -3.65530
H         10.90306        34.29961        -3.89497
O         31.50295        39.04230         1.73818
H         32.31747        38.60330         2.08630
O         14.26429        30.74390        -3.72937
H         15.17924        30.78785        -4.10377
O         12.77194        46.10238        -1.15248
H         12.86076        47.06734        -1.33008
O         29.47516        31.59528        -3.34448
H         29.84591        30.86153        -3.89118
O         13.43206        44.33025         1.95870
H         13.36200        43.39204         2.23405
O         34.54656        22.28568        -2.86953
H         34.50167        23.21710        -3.17867
O         27.93285        52.23413         4.30535
H         27.14844        52.71899         4.64158
O         34.72309        44.06235        -1.03134
H         34.04720        43.64433        -1.60356
O         22.96108        22.44643        -3.39079
H         23.45197        23.08804        -3.95830
O         28.18970        24.28578        -3.57910
H         29.12431        24.12143        -3.83399
O         28.20250        18.24263        -2.77265
H         27.76239        18.95696        -3.29767
O          7.76457        27.50528         1.48810
H          8.37523        27.98183         2.08758
O         24.84637        43.55375         1.78688
H         24.31901        42.78637         2.11590
O          7.80169        36.37063        -3.10623
H          8.57006        36.92329        -3.45721
O         18.87481        21.92804        -2.40143
H         19.61866        21.48251        -2.85978
O         36.12123        27.75857        -2.75079
H         35.83254        27.00927        -3.32259
O         26.22483        46.76450        -1.01485
H         25.47740        47.29063        -1.37203
O         25.75322        23.32311         0.18876
H         25.20317        22.62883         0.62015
H          4.93634        31.39499        -0.03239
H          4.90910        33.85582        -0.28492
H          7.52556        27.10847        -0.51299
H          6.18129        29.30041         0.13230
H          6.11018        35.92821        -0.78271
H          7.54791        37.78264        -0.31407
H          9.86275        22.95017         0.93604
H          8.66428        25.05186         0.62548
H          8.65346        40.03860        -0.42141
H          9.85230        42.03912         0.04999
H         12.57659        18.68021         2.10556
H         11.12105        21.04457         1.74934
H         11.08296        44.07666         0.60166
H         12.40632        46.32725         0.89807
H         14.92093        14.76559         2.71929
H         13.68967        16.67890         2.06960
H         13.65849        48.31565         1.39676
H         14.83619        50.66816         1.03831
H         17.46825        10.14803         3.27743
H         16.27847        12.58571         2.11830
H         15.96469        52.68193         1.12364
H         17.79273        54.87163         1.11602
H         20.07460         6.83561         5.71635
H         18.73891         8.55341         4.52357
H         18.71692        56.75847         1.79225
H         20.23901        58.69262         1.62424
H         23.75571         4.39648         7.63642
H         21.51493         5.30596         7.11199
H         23.54772        61.72061         0.85258
H         21.35645        60.62049         1.18583
H         25.78215         5.14210         6.41902
H         26.82474         6.49761         4.55994
H         26.68128        58.86867         3.01813
H         25.62600        60.70414         1.78813
H         27.93379         8.26748         3.41401
H         29.19784        10.31545         2.47306
H         29.11749        54.64833         3.05182
H         27.88775        56.83353         3.15343
H         30.34462        12.16472         1.30508
H         30.74446        14.40994        -0.99414
H         31.56116        50.45989         1.96043
H         30.34448        52.49465         2.61799
H         32.76969        16.23318         0.26454
H         34.03916        18.20115        -0.52861
H         34.02308        46.27415         1.18099
H         32.78148        48.32822         1.70036
H         35.26020        20.26395        -1.09360
H         36.47766        22.48059        -0.60021
H         36.48791        42.13786         0.78407
H         35.24121        44.16120         0.96011
H         37.77207        24.62001        -0.56565
H         39.07309        26.73555        -1.52354
H         39.01818        37.84666         0.20613
H         37.77830        39.95199         0.29306
H         40.50162        29.12385        -0.65107
H         41.41869        31.04722         0.00249
H         41.37811        33.49487         0.26125
H         40.13686        35.59037         0.49535
