         668
 CSIRO Nanostructure Databank - Neutral Graphene Oxide Data Set
C          6.29072        32.03697        -1.62850
C          6.26658        33.37664        -1.40101
C          8.55227        27.58759        -0.98340
C          8.30612        28.96374        -0.40441
C          7.30567        29.84101        -1.13354
C          8.65374        31.93808        -0.77413
C          7.38968        31.19806        -1.16553
C          8.41881        33.32078        -0.22555
C          7.32674        34.06750        -0.66959
C          8.40939        36.19741        -0.03139
C          7.30354        35.48331        -0.52568
C          8.53382        37.59428        -0.15782
C         11.12539        23.47302        -1.35728
C         10.97597        24.76619        -0.77835
C          9.87501        25.52841        -1.11406
C         10.71288        27.42715         0.26630
C          9.65225        26.85691        -0.61432
C         10.69551        28.90653         0.49190
C          9.67703        29.68470        -0.31814
C         10.82210        31.78175         0.51414
C          9.50145        31.11736         0.20120
C         10.79752        33.21998         0.68016
C          9.49396        33.92429         0.55677
C         10.79657        36.15403         0.84188
C          9.50999        35.47137         0.62955
C         10.84189        37.55221         0.77702
C          9.69069        38.27934         0.28828
C         10.89772        40.42772         0.65524
C          9.79101        39.67392         0.18354
C         10.80039        41.81613         0.35630
C         13.54917        19.24490        -1.84179
C         13.54124        20.62798        -1.55367
C         12.35541        21.37669        -1.68051
C         13.44494        23.21228        -0.40136
C         12.27051        22.70247        -1.20609
C         13.38596        24.68728        -0.07414
C         12.01089        25.23987         0.22804
C         13.12649        27.40452         0.86079
C         12.00746        26.73748         0.42204
C         13.12728        28.84906         1.06999
C         11.96071        29.59122         0.81240
C         13.10619        31.73617         1.47314
C         11.93633        31.02442         0.84455
C         13.25278        33.14216         0.88538
C         11.95702        33.92642         0.93889
C         13.16206        36.04711         1.41665
C         11.98890        35.37090         1.08433
C         13.13759        37.48385         1.70667
C         11.98794        38.30235         1.24689
C         13.23158        40.33510         2.00274
C         12.01740        39.69837         1.25836
C         13.37141        41.80575         1.78340
C         11.60047        42.85128         0.90316
C         13.15022        44.78125         1.02985
C         11.96342        44.07022         0.40004
C         13.31092        46.17392         0.47517
C         15.91745        14.94283        -2.38436
C         15.89082        16.28870        -2.00933
C         14.72984        17.10294        -2.06595
C         15.92723        19.14698        -1.19230
C         14.70370        18.45829        -1.68048
C         15.96630        20.62894        -1.15988
C         14.79266        21.31021        -1.22231
C         15.94275        23.37792        -0.28156
C         14.76836        22.81241        -1.06512
C         15.79414        24.60990         0.34151
C         14.51436        25.31576         0.37509
C         15.63814        27.42227         1.26535
C         14.36967        26.59627         1.19732
C         15.59857        28.76533         1.53596
C         14.36583        29.54100         1.38886
C         15.62056        31.67461         1.47035
C         14.39687        30.94323         1.42566
C         15.68245        33.06833         1.41929
C         14.41950        33.83267         1.54239
C         15.70837        36.02893         1.56704
C         14.41915        35.31931         1.71682
C         15.73569        37.40953         1.52598
C         14.52427        38.18495         1.87503
C         15.68239        40.30277         1.30715
C         14.52408        39.63073         1.68002
C         15.69976        41.73722         1.10692
C         14.46749        42.47877         1.30129
C         15.71673        44.55041         0.46430
C         14.40363        43.89648         0.80564
C         15.81197        46.02138         0.09988
C         14.50300        46.77319         0.21002
C         15.80149        48.87087         0.04180
C         14.59662        48.18110        -0.06550
C         15.84631        50.26337        -0.26255
C         18.39192        10.48681        -2.29882
C         18.28218        11.91186        -2.00499
C         17.10115        12.74444        -2.35480
C         18.41789        14.83409        -2.20100
C         17.10913        14.12397        -2.30304
C         18.40232        16.35228        -2.03463
C         17.13350        16.84075        -1.34314
C         18.51795        19.12001        -1.37605
C         17.19205        18.37223        -1.13531
C         18.51332        20.54599        -0.80501
C         17.27886        21.39121        -1.08380
C         18.34885        23.24745         0.28210
C         17.19562        22.67111        -0.26091
C         18.31254        24.58971         0.79241
C         16.98279        25.23281         0.95421
C         18.21294        27.47385         1.22955
C         16.92515        26.67075         1.37369
C         18.15114        28.71182         2.11757
C         16.84463        29.48161         1.93800
C         18.16362        31.61553         1.33366
C         16.87953        30.95899         1.77342
C         18.13718        33.11430         1.44724
C         16.92059        33.77861         1.38098
C         18.17232        35.94446         1.08921
C         16.85797        35.22967         0.97748
C         18.13229        37.39527         0.68232
C         16.91222        38.14899         1.15296
C         18.15608        40.26779         0.94427
C         16.91656        39.54551         1.11044
C         18.17139        41.68046         0.93306
C         16.92949        42.41118         0.89709
C         18.18463        44.53453         0.94152
C         16.97671        43.83836         0.77047
C         18.19135        46.01262         1.14534
C         16.92417        46.76426         0.81013
C         18.18061        48.89307         0.79246
C         17.00685        48.20696         0.52987
C         18.17244        50.36749         0.59095
C         17.00597        51.00447        -0.08181
C         18.25108        53.11528        -0.43730
C         17.04766        52.38603        -0.39825
C         18.29472        54.46731        -0.78595
C         20.82864         6.22059        -2.03564
C         20.83593         7.63686        -2.04078
C         19.65047         8.37256        -2.26643
C         20.86577        10.47212        -1.90715
C         19.61093         9.78832        -2.15546
C         20.87760        11.89121        -1.64350
C         19.56500        12.59628        -1.62965
C         20.72582        14.69512        -1.09831
C         19.65888        14.06127        -1.90449
C         20.39026        15.88692        -0.54090
C         19.51060        16.86765        -1.12058
C         20.89246        18.85855        -0.42721
C         19.61031        18.20252        -0.81838
C         20.93187        20.34804        -0.51743
C         19.67256        21.15557        -0.42618
C         20.83746        23.28234         0.70584
C         19.60776        22.40595         0.47618
C         20.66184        24.45549         1.65815
C         19.45543        25.27972         1.25429
C         20.64378        27.37912         1.92084
C         19.47058        26.67200         1.53231
C         20.64131        28.83005         2.02090
C         19.41862        29.54535         1.94435
C         20.62438        31.69143         1.85414
C         19.41772        30.94215         1.82964
C         20.57938        33.12404         1.69143
C         19.38091        33.82077         1.47062
C         20.62406        35.99115         1.23600
C         19.35748        35.27319         1.29247
C         20.62137        37.40654         1.04357
C         19.40632        38.13274         0.94601
C         20.63819        40.25068         0.93762
C         19.39674        39.53704         0.93603
C         20.65444        41.67027         1.00199
C         19.41137        42.40704         1.00450
C         20.63697        44.55708         1.43722
C         19.39936        43.81874         1.08495
C         20.70933        46.04751         1.32904
C         19.45746        46.78538         1.20518
C         20.66585        48.95531         1.31582
C         19.40677        48.18469         1.13130
C         20.71981        50.43967         0.96877
C         19.43932        51.15195         0.63927
C         20.77919        53.13919        -0.25683
C         19.52556        52.30739        -0.36810
C         20.77676        54.49511        -0.65149
C         19.52714        55.18232        -0.91286
C         20.79047        57.22159        -1.49583
C         19.55919        56.52469        -1.29809
C         20.80915        58.55042        -1.96654
C         23.12350         3.33579        -1.37547
C         21.97084         4.05319        -1.69857
C         23.21898         6.15716        -1.45293
C         21.99219         5.47335        -1.73927
C         23.27247         7.58219        -1.50710
C         22.07588         8.33408        -1.80385
C         23.36294        10.47822        -1.74298
C         22.07223         9.74810        -1.80806
C         23.39269        12.00638        -1.58467
C         22.02129        12.57437        -1.28803
C         23.22792        14.74754        -0.69236
C         21.91711        13.90943        -0.56237
C         23.30057        16.07278         0.07229
C         22.16307        16.83693         0.33560
C         23.33978        18.91390         0.31039
C         22.11543        18.22377         0.12289
C         23.36817        20.36987         0.27248
C         22.25115        20.95910        -0.26217
C         23.33062        23.28959         1.07559
C         22.13457        22.98905         0.33983
C         23.16516        24.40515         2.07738
C         21.97841        25.27594         1.59411
C         23.09480        27.40996         2.26193
C         21.90475        26.70495         2.09223
C         23.11584        28.85490         2.16213
C         21.87009        29.55623         2.05705
C         23.11834        31.68205         1.91356
C         21.87502        30.98867         1.98586
C         23.14075        33.15710         1.94302
C         21.82367        33.89994         1.84481
C         23.08388        35.97665         1.23500
C         21.84193        35.31200         1.41414
C         23.08544        37.37824         0.98434
C         21.86140        38.10566         0.98362
C         23.09799        40.22810         0.77213
C         21.86206        39.52828         0.89243
C         23.11428        41.64862         0.82718
C         21.90197        42.34288         1.02584
C         23.25470        44.47055         1.38117
C         21.93287        43.76167         1.41678
C         23.24723        45.97447         1.44324
C         21.93793        46.69211         1.34105
C         23.20342        48.84192         0.79243
C         21.97082        48.17830         1.35998
C         23.21210        50.26828         0.34251
C         21.99108        51.10152         0.54173
C         23.22347        53.15655        -0.17886
C         21.99300        52.47207        -0.04479
C         23.22496        54.51958        -0.48784
C         22.00902        55.19765        -0.75302
C         23.26843        57.19619        -1.53055
C         22.03131        56.55507        -1.22933
C         23.26794        58.52231        -2.08519
C         22.02545        59.21440        -2.25228
C         23.24273        61.17810        -3.02018
C         22.04370        60.55688        -2.72789
C         24.31777         3.99109        -1.08262
C         25.59978         6.09209        -0.81967
C         24.39388         5.41236        -1.11325
C         25.67039         7.50379        -0.85750
C         24.48666         8.23488        -1.19978
C         25.77790        10.37926        -0.82808
C         24.58662         9.68786        -1.35697
C         25.76724        11.76610        -0.63973
C         24.42777        12.46390        -0.50356
C         25.71021        14.67114        -0.42113
C         24.51066        13.97190        -0.49016
C         25.74029        16.09807        -0.23160
C         24.53051        16.78282         0.09426
C         25.75181        18.85340         0.94158
C         24.52423        18.17258         0.42660
C         25.74143        20.36541         0.84258
C         24.57668        21.10567         0.65806
C         25.69607        23.12841         1.64539
C         24.51141        22.52034         1.07836
C         25.72817        24.49093         1.98689
C         24.44755        25.19008         2.27972
C         25.67388        27.41337         2.40853
C         24.37903        26.66964         2.45626
C         25.62778        28.88842         2.22031
C         24.32633        29.57376         2.04786
C         25.60721        31.70425         1.68942
C         24.34506        30.98405         1.87497
C         25.58836        33.12838         1.46575
C         24.37403        33.86142         1.53691
C         25.53367        35.90423         0.82772
C         24.33401        35.24301         1.24518
C         25.51906        37.32554         0.54010
C         24.30702        38.07585         0.72244
C         25.53523        40.20471         0.40608
C         24.30745        39.48641         0.62257
C         25.57027        41.59257         0.46529
C         24.38251        42.36311         0.72823
C         25.77732        44.46264         0.93152
C         24.43913        43.74558         0.87169
C         25.71790        45.95531         0.66484
C         24.55055        46.70204         1.19061
C         25.73093        48.84851         0.43207
C         24.53448        48.19085         0.99252
C         25.69705        50.28187         0.23217
C         24.50295        50.97194         0.20351
C         25.74056        53.16441         0.22859
C         24.52375        52.39793        -0.29932
C         25.76800        54.55626        -0.35139
C         24.48371        55.33783        -0.36002
C         25.74952        57.13696        -1.57356
C         24.50532        56.54902        -1.25279
C         25.80157        58.42396        -2.37046
C         24.48607        59.16795        -2.42416
C         24.46288        60.48431        -2.87812
C         26.89186         8.20142        -0.62192
C         28.15958        10.32757        -0.28491
C         26.96234         9.62001        -0.59426
C         28.18971        11.72202        -0.24808
C         26.97744        12.44480        -0.39763
C         28.29871        14.64315        -0.45538
C         26.99236        13.91939        -0.54399
C         28.30232        16.13524        -0.25714
C         26.97247        16.89177        -0.17447
C         28.24546        18.89140         0.67961
C         27.01294        18.22739         0.41545
C         28.18384        20.28026         1.14886
C         26.99615        20.97871         1.20997
C         28.21932        23.10533         1.74894
C         26.94288        22.31708         1.91383
C         28.19341        24.53181         1.88491
C         26.95637        25.22032         2.07382
C         28.12482        27.39667         2.09336
C         26.95557        26.67664         2.17571
C         28.14464        28.91536         2.25049
C         26.86733        29.51862         1.62896
C         28.06507        31.70717         1.38270
C         26.83870        31.02898         1.63673
C         28.05330        33.09851         1.07185
C         26.79121        33.80679         1.09761
C         27.91105        35.77193         0.02495
C         26.73430        35.17353         0.74435
C         27.91858        37.27508        -0.04039
C         26.68026        37.99286         0.12391
C         27.83373        40.07666        -0.46126
C         26.72214        39.43719         0.05693
C         27.79156        41.53870        -0.62996
C         26.92648        42.26628         0.38202
C         27.92231        44.41497        -0.42856
C         26.85409        43.74874         0.15475
C         27.86128        45.91421        -0.65622
C         26.79661        46.63051         0.15229
C         28.10468        48.74055        -0.19980
C         26.86107        48.08783         0.13554
C         28.24295        50.23014         0.02246
C         26.94448        50.99484        -0.00942
C         28.24798        53.04890        -0.35657
C         26.99110        52.36052        -0.08060
C         28.25654        54.55243        -0.19706
C         26.95338        55.19932        -0.61914
C         26.94197        56.50521        -1.20760
C         29.51555        12.40263         0.06603
C         30.70865        14.60957         0.02206
C         29.55451        13.91534        -0.10172
C         30.73068        16.11982        -0.17359
C         29.46790        16.68699         0.52583
C         30.71481        18.76137         1.26828
C         29.45496        18.18245         0.68433
C         30.71157        20.26794         1.29439
C         29.42520        20.90950         1.75216
C         30.65374        23.11961         1.52218
C         29.41656        22.41348         1.63261
C         30.61871        24.54526         1.63577
C         29.43217        25.23818         1.86106
C         30.62001        27.48991         1.72148
C         29.44953        26.69967         2.25284
C         30.59311        28.86722         1.61860
C         29.36793        29.59467         1.66957
C         30.51327        31.67721         0.98659
C         29.32101        30.97756         1.34431
C         30.51298        33.07097         0.78637
C         29.26743        33.77850         0.77647
C         30.39829        35.88930         0.19786
C         29.24715        35.17852         0.39872
C         30.38979        37.39160         0.00008
C         29.05588        37.92733        -0.44185
C         30.17531        39.97582        -1.50960
C         28.87385        39.24712        -1.16556
C         30.15958        41.48727        -1.70829
C         28.94359        42.27623        -1.27626
C         30.25442        44.46596        -1.31689
C         29.03582        43.71834        -0.98411
C         30.36151        45.88107        -0.89511
C         29.21803        46.58791        -0.60138
C         30.53780        48.71559        -0.68359
C         29.26055        48.02353        -0.47287
C         30.57000        50.09411        -0.81374
C         29.26975        50.84749        -0.92418
C         29.35397        52.34750        -0.71755
C         31.98509        16.83973         0.24808
C         33.17176        18.92377         0.72089
C         31.97237        18.13983         0.68739
C         33.15503        20.30162         0.93104
C         31.88131        20.98870         1.18099
C         33.12731        23.15014         1.25540
C         31.87972        22.43095         1.30874
C         33.14371        24.52940         1.40873
C         31.87667        25.27558         1.38603
C         33.13804        27.51512         1.43228
C         31.86825        26.76989         1.41417
C         33.12650        28.87788         1.27589
C         31.87612        29.67019         1.57112
C         33.05618        31.69576         0.75479
C         31.76971        30.89493         0.67913
C         32.99824        33.12742         0.61286
C         31.75925        33.77949         0.58868
C         32.85303        35.78692        -0.41675
C         31.74063        35.28761         0.53155
C         32.76995        37.26562        -0.74106
C         31.58700        37.92494        -0.75590
C         32.76811        40.07442        -1.43765
C         31.50410        39.28679        -1.36313
C         32.75395        41.47254        -1.58871
C         31.48448        42.21050        -1.79781
C         32.82434        44.37921        -1.42452
C         31.51825        43.71603        -1.67723
C         32.83866        45.76762        -1.17445
C         31.66076        46.53414        -0.96699
C         31.72089        47.92709        -0.82818
C         34.35989        21.05489         0.87004
C         35.59727        23.18308         0.90298
C         34.38528        22.44406         1.03356
C         35.65422        24.57125         1.08395
C         34.41470        25.25788         1.49644
C         35.62604        27.49583         1.07846
C         34.41038        26.78748         1.48997
C         35.57593        28.89373         0.88839
C         34.33774        29.59944         1.01621
C         35.57139        31.77779         0.82937
C         34.27020        31.01675         0.82679
C         35.42834        33.15408         0.23576
C         34.24968        33.83584         0.32529
C         35.38525        35.82800        -0.76832
C         34.23890        35.34019         0.09493
C         35.27971        37.17372        -1.36825
C         33.96760        37.89571        -1.36038
C         35.22635        40.05631        -1.62888
C         33.98628        39.36874        -1.46609
C         35.20387        41.47105        -1.64082
C         33.99273        42.18978        -1.59496
C         33.99559        43.62224        -1.49878
C         36.82876        25.34280         0.90100
C         38.04089        27.49943         0.63350
C         36.83106        26.75416         0.88784
C         38.03069        28.86134         0.46484
C         36.78785        29.60485         0.53075
C         37.93637        31.69857        -0.09358
C         36.75408        30.98410         0.31567
C         37.90783        33.05722        -0.28819
C         36.57628        33.68607        -0.58056
C         37.80557        35.83065        -1.24187
C         36.57624        35.17295        -0.78900
C         37.74101        37.21890        -1.59955
C         36.53383        37.93777        -1.57813
C         36.45840        39.33178        -1.72746
C         39.32136        29.65252         0.39291
C         40.37919        31.71490        -0.70527
C         39.13851        30.87569        -0.51509
C         40.36847        33.05372        -0.74743
C         39.16528        33.88292        -0.36303
C         39.01267        35.16307        -1.14441
O         19.62909        51.66610        -1.63771
O         21.37585        48.71307         2.57137
O          9.08205        34.64106         1.75591
O         18.54121        51.21823         1.76685
O         27.70049        41.95736        -2.01956
O         13.73804        37.75125         3.01174
O         16.84706        25.64654         2.40427
O         30.72399        41.82760        -2.99816
O         10.19911        28.01560         1.53922
O         18.68961        12.22892        -0.53380
O         22.49200        33.70658         3.14694
O         22.34086        22.22814        -0.81857
O         16.51380        18.67939         0.11475
O         24.40614        25.77366         3.63795
O         21.21961        44.01174         2.66754
O         27.86227        16.85810        -1.38138
O         30.78952        39.29541        -2.65544
O         12.20944        42.48473         2.14717
O         21.53564        51.16969         1.93894
O         16.74372        30.38048         3.11253
O         19.37432        14.44838        -3.28129
O         23.01500        49.16350        -0.63356
O         14.24700        34.39218         2.87324
O         31.75806        26.04736         0.09427
O         25.77647        28.33800         3.57364
O         20.96916        16.22757         0.67759
O         17.19756        46.39187         2.18136
O         30.72526        44.34110        -2.72715
O         24.80639        47.62737         2.31329
O         24.29451        10.06509        -2.79392
O         21.17528        19.57087        -1.76125
O         14.89408        43.88741        -0.57629
O         27.76041        14.27701        -1.76686
O         34.55197        26.02021         2.75265
O         23.46831        45.16796         2.66670
O         17.17821        16.23165        -0.02822
H         16.65951        16.81880         0.57158
O         32.02205        35.75777         1.91105
H         31.41020        35.27306         2.50669
O         39.42350        34.32605         1.02348
H         39.61037        33.52381         1.55659
O         38.79723        30.33287        -1.82167
H         38.49233        31.07410        -2.38669
O         18.66050        19.29070        -2.79714
H         19.59410        19.56025        -2.95939
O         14.85134        23.38248        -2.40289
H         14.79089        24.35809        -2.32099
O         12.94906        40.16486         3.42120
H         12.18140        40.73975         3.62919
O         18.18039        31.34770        -0.12606
H         18.74995        32.02503        -0.54954
O         23.20974        15.17355        -2.08877
H         24.12695        15.37608        -2.36992
O         28.39963        54.84017         1.21502
H         29.17408        54.33945         1.54665
O         26.85595        29.11638         0.22729
H         27.61468        29.54953        -0.21964
O         22.25993        25.50343         0.17549
H         21.48919        25.96660        -0.21735
O         30.73556        18.33562         2.71558
H         31.63655        18.53579         3.05353
O         27.40326        46.06899        -2.04011
H         28.05480        45.62228        -2.62323
O         16.19536        46.06195        -1.30308
H         15.62531        45.40849        -1.76785
O         17.99881        37.38096        -0.82090
H         18.87843        37.13541        -1.18210
O         25.63760        53.27194         1.66718
H         26.38498        53.83182         1.97241
O         24.39357        55.91251         1.01142
H         25.24885        56.35753         1.19512
O         23.93451        12.01000         0.78848
H         23.16107        12.57713         1.04879
O         24.74901        52.29555        -1.74141
H         24.05568        51.71376        -2.12014
O         26.85679        21.96305         3.34009
H         27.71817        21.53058         3.57647
O         26.16880        44.36803         2.35587
H         25.40177        44.72785         2.87155
O         28.78188        50.63635        -2.28285
H         29.45371        50.98107        -2.90672
O         29.32815        20.64075         3.20855
H         29.61225        19.69994         3.33812
O         10.25665        29.67954        -1.64383
H         10.04211        30.53209        -2.09718
O         31.63340        30.42283        -0.69178
H         31.61770        31.20581        -1.28139
O          8.75728        31.10798         1.43471
H          9.20598        30.51752         2.07481
O         17.49083        21.89087        -2.45028
H         16.66727        22.36051        -2.72389
O         34.40197        37.16395        -2.58263
O         12.78356        31.89632         2.87849
H         12.87144        31.02747         3.32230
O         36.27668        33.15444        -1.94185
H         35.45434        33.59072        -2.25531
O         29.68462        26.70868         3.71587
H         29.35718        27.58442         4.04273
O         18.24697        27.89237        -0.15927
H         18.82532        28.68247        -0.23292
O         39.66934        30.07552         1.72143
H         38.86482        30.44059         2.14610
O         28.26138        38.89187        -2.44993
H         28.98599        38.87123        -3.11743
O         18.48172        16.90165        -3.35006
H         19.10441        16.33614        -3.86041
O         19.42440        21.77717         1.79255
H         19.50200        22.49920         2.47315
O         32.05343        30.18848         2.92273
H         32.07468        29.42896         3.54227
O         27.68816        35.36805        -1.37905
H         28.18337        35.99223        -1.95315
O         21.72660        13.60944         0.84873
H         20.82789        13.23322         0.96825
O         13.60621        32.98055        -0.51513
H         14.07940        33.78276        -0.82127
O         12.97599        44.97721         2.44748
H         12.59018        44.15148         2.82202
O          9.42398        32.15512        -2.00928
H          8.82340        32.58527        -2.65484
O         20.33691        24.01914         2.99984
H         21.17937        23.71419         3.42948
O         23.81017        12.57534        -2.84334
H         24.25630        11.85510        -3.34958
O         32.64185        35.11497        -1.68545
H         33.15675        35.62202        -2.36147
O         29.39265        16.10268         1.85286
H         29.90925        16.68480         2.46284
O         30.55372        37.98924         1.34425
H         31.25231        37.45990         1.80332
O         22.88628        23.77386         3.35390
H         23.29981        24.34625         4.04603
O         16.51139        35.16212        -0.46556
H         16.87429        35.99348        -0.87528
O         35.90304        32.00386         2.25459
H         35.13374        32.45499         2.66431
O         28.23425        29.18606         3.67905
H         27.37314        28.88904         4.07594
O          7.72234        28.75513         0.90532
H          8.37987        28.24296         1.43786
O         30.56274        11.80461        -0.71022
H         30.36192        11.95946        -1.65621
O         26.85129        59.27457        -1.89214
H         26.60913        59.58660        -0.99647
O         34.54905        35.98053         1.36102
H         33.78259        35.84762         1.96889
O         18.16657        28.22800         3.47576
H         17.85246        28.96489         4.04669
O         30.58007        16.39803        -1.58896
H         31.35584        16.03234        -2.06140
O         14.13970        26.10757         2.56420
H         15.01079        25.75347         2.88046
O         27.59053        42.07304         1.67254
H         27.16950        42.71255         2.29951
O         11.65889        24.65381         1.52974
H         12.25786        25.07761         2.19107
O         28.77417        50.39031         1.37374
H         28.11836        50.01853         2.00088
O         13.40535        22.53887         0.88467
H         12.63732        22.91985         1.37530
O         25.75749        18.58423         2.40799
H         26.13670        19.36941         2.86098
H          5.43302        31.54696        -2.11406
H          5.40600        33.97317        -1.73826
H          7.79028        27.12154        -1.62825
H          6.37197        29.36069        -1.47131
H          6.45897        36.04325        -0.95458
H          7.71381        38.17208        -0.60949
H         10.29864        23.08351        -1.97252
H          9.14145        25.11459        -1.82370
H          8.94196        40.22433        -0.24891
H         10.02131        42.10634        -0.36508
H         12.61945        18.76945        -2.18974
H         11.45872        20.89634        -2.10146
H         11.59961        44.39129        -0.58533
H         12.40209        46.79692         0.48793
H         14.97915        14.45763        -2.69878
H         13.80332        16.66834        -2.47461
H         13.67694        48.74258        -0.29091
H         14.94974        50.74361        -0.68301
H         17.49362         9.93118        -2.60699
H         16.14611        12.21710        -2.50895
H         16.09922        52.89573        -0.63614
H         17.35500        54.99756        -1.01068
H         19.88655         5.68936        -2.23853
H         18.71533         7.82721        -2.46268
H         18.61535        57.05553        -1.49503
H         19.85768        59.07531        -2.13961
H         23.08713         2.23759        -1.34747
H         21.03362         3.52312        -1.91999
H         23.25152        62.21609        -3.38091
H         21.09219        61.09249        -2.85599
H         25.21581         3.41204        -0.82422
H         26.50076         5.51120        -0.57386
H         26.08188        58.15385        -3.42878
H         25.40972        60.98287        -3.12914
H         27.80218         7.61778        -0.42009
H         29.08735         9.76470        -0.10621
H         29.12478        55.00266        -0.75617
H         27.89732        57.00441        -1.42690
H         29.75975        12.17533         1.14148
H         31.64649        14.07612         0.24343
H         31.52195        50.60101        -1.03915
H         30.28164        52.87558        -0.99495
H         32.94471        16.40888        -0.08544
H         34.12103        18.43626         0.45101
H         33.81147        46.27783        -1.10796
H         32.69005        48.43761        -0.93294
H         35.30161        20.51981         0.67592
H         36.51634        22.63786         0.63947
H         36.15294        42.02420        -1.69513
H         34.96525        44.13330        -1.40242
H         37.76946        24.81685         0.67725
H         38.99531        26.95240         0.59718
H         38.68145        37.75472        -1.79940
H         37.38675        39.90216        -1.88147
H         40.15644        29.01444         0.01393
H         41.30879        31.17028        -0.93606
H         41.30241        33.60230        -0.94996
H         39.93723        35.68871        -1.43129
