         324
 CSIRO Nanostructure Databank - Neutral Graphene Oxide Data Set
C          1.29761         1.86556        -0.07429
C          1.23676         3.27102        -0.16032
C          2.49044         1.23181         0.20888
C          2.37332         4.05953         0.04200
C          1.22817         6.18658        -0.51263
C          1.18879         7.60485        -0.64824
C          2.31877         5.51444        -0.00472
C          2.23467         8.40402        -0.26423
C          1.22277        10.55510        -1.25967
C          1.32211        11.84437        -1.64041
C          2.18459         9.88869        -0.35499
C          2.37939        12.75900        -1.15212
C          1.75073        14.63186        -2.73335
C          1.90622        15.96016        -3.21964
C          2.64794        14.04154        -1.86553
C          2.98392        16.75491        -2.85763
C          3.07644        18.15661        -3.15902
C          3.68350         1.98675         0.40130
C          3.63127         3.42777         0.31605
C          4.88795         1.33511         0.72316
C          4.80467         4.19585         0.52546
C          3.46045         6.27660         0.55098
C          3.39087         7.80862         0.43637
C          4.77958         5.59555         0.66912
C          4.66595         8.56239         0.47913
C          3.43226        10.67017         0.02337
C          3.50979        12.12970        -0.34918
C          4.69009         9.91172         0.25203
C          4.81458        12.83574        -0.22569
C          3.92284        14.71199        -1.58868
C          4.10995        16.14108        -2.14076
C          4.85210        14.20168        -0.55597
C          5.12264        17.03046        -1.55715
C          4.14044        18.91275        -2.73749
C          5.17253        18.35691        -1.89926
C          6.10689         2.03888         0.81142
C          6.14747         3.51129         0.45267
C          7.30993         1.39754         1.05611
C          7.23073         4.21063         1.27806
C          5.96801         6.34384         0.93638
C          5.86071         7.82624         0.99553
C          7.23313         5.71954         1.12431
C          7.13141         8.58247         1.16268
C          5.96802        10.67573         0.22143
C          5.94828        12.15257         0.25676
C          7.22523         9.98583         0.65100
C          7.14842        12.88057         0.68219
C          5.95954        15.05330        -0.10353
C          6.10562        16.47056        -0.60212
C          7.17212        14.40633         0.50150
C          7.43474        17.10299        -0.57910
C          6.27414        19.23240        -1.33840
C          7.53906        18.45952        -0.99765
C          8.55814         2.10052         0.91889
C          8.54861         3.55280         0.92752
C          9.74367         1.38191         0.83118
C          9.70168         4.29802         0.79084
C          8.46661         6.41818         1.33543
C          8.41253         7.86972         1.41713
C          9.73741         5.71449         1.17228
C          9.39714         8.69241         1.93449
C          8.40046        10.78031         1.06246
C          8.44186        12.17559         0.89453
C          9.47358        10.12863         1.70584
C          9.64374        12.89143         1.11185
C          8.47307        15.06491         0.37206
C          8.56622        16.36324        -0.14032
C          9.64753        14.36386         0.96696
C          9.89209        17.01146        -0.29369
C          8.74763        19.14109        -0.89046
C          9.94791        18.48170        -0.48345
C         10.94074         2.02451         0.31730
C         10.89865         3.59925         0.26615
C         12.25664         1.40470         0.34239
C         12.19799         4.26555         0.22035
C         11.02237         6.33280         1.18961
C         11.32587         7.58047         1.80516
C         12.14014         5.72284         0.39955
C         12.46900         8.36062         1.56754
C         10.63456        10.89262         1.97948
C         10.84423        12.21121         1.50307
C         12.55767         9.74677         1.89740
C         12.19261        12.83448         1.40887
C         10.99775        15.02560         0.96739
C         11.11459        16.32254         0.22455
C         12.24561        14.22892         1.11624
C         12.33545        17.11161         0.44144
C         11.13198        19.16298        -0.25964
C         12.34213        18.50972         0.17523
C         13.41745         2.12311         0.05774
C         13.38636         3.58259        -0.00368
C         14.67012         1.44817        -0.05074
C         14.65049         4.30231        -0.16085
C         13.42389         6.45584         0.20159
C         13.68974         7.68605         1.02803
C         14.64579         5.68772        -0.13029
C         14.69113         8.62327         0.43779
C         13.51981        10.61615         1.37218
C         13.43902        12.08484         1.39392
C         14.67635         9.95710         0.76920
C         14.66592        12.81077         1.20793
C         13.46841        14.94309         0.96081
C         13.51642        16.40373         0.74915
C         14.67164        14.21829         1.05569
C         14.72716        17.13376         0.75291
C         13.54000        19.23218         0.34372
C         14.75466        18.55750         0.61540
C         15.89620         2.12400        -0.18815
C         15.91193         3.57508        -0.22548
C         17.11890         1.41537        -0.29968
C         17.14160         4.24021        -0.20699
C         15.85960         6.46632        -0.40664
C         15.87554         7.95142        -0.15739
C         17.19340         5.70218        -0.40316
C         17.21056         8.59978         0.04862
C         15.96045        10.66255         0.93663
C         15.95969        12.12887         1.07185
C         17.23115         9.91732         0.74318
C         17.16821        12.77766         1.03484
C         15.95590        14.92760         0.83106
C         16.00490        16.41978         0.70429
C         17.21837        14.24057         1.22140
C         17.27789        17.15808         0.87088
C         16.00091        19.25502         0.66951
C         17.25182        18.59797         0.80428
C         18.36651         2.07838        -0.30339
C         18.38749         3.51403        -0.14135
C         19.59962         1.40034        -0.45497
C         19.61446         4.17414         0.03335
C         18.42985         6.42333        -0.05284
C         18.45515         7.80537         0.13352
C         19.60800         5.62100         0.32391
C         19.65782         8.51024         0.43332
C         18.51025        10.63873         0.69428
C         18.44180        12.10446         0.68823
C         19.69053         9.92811         0.59483
C         19.72996        12.85819         0.61379
C         18.50199        15.01117         1.17425
C         18.48528        16.47572         0.94185
C         19.76986        14.30767         0.90719
C         19.73522        17.17100         0.87990
C         18.48369        19.29467         0.84033
C         19.72948        18.61201         0.86043
C         20.83538         2.08228        -0.42011
C         20.86499         3.49529        -0.10795
C         22.06096         1.40617        -0.65767
C         22.11550         4.16472        -0.00612
C         20.91443         6.32122         0.56941
C         20.91870         7.77560         0.23609
C         22.23225         5.54297         0.62961
C         22.21924         8.51029         0.16286
C         20.99430        10.62094         0.94101
C         21.00810        12.10551         0.67339
C         22.23651         9.95188         0.42371
C         22.19016        12.78427         0.55533
C         20.93236        15.00417         0.72421
C         20.96079        16.45700         0.80245
C         22.17042        14.26078         0.37898
C         22.19672        17.15766         0.76233
C         20.97087        19.29372         0.86824
C         22.20336        18.59739         0.84765
C         23.29323         2.07321        -0.61600
C         23.32278         3.48101        -0.27347
C         24.50973         1.37583        -0.90263
C         24.57665         4.17065        -0.19642
C         23.46218         6.33054         0.19657
C         23.47917         7.74075         0.21586
C         24.65492         5.57680        -0.02768
C         24.67654         8.49207         0.14005
C         23.44352        10.64082         0.41778
C         23.46514        12.08518         0.51949
C         24.67961         9.90876         0.22741
C         24.68608        12.78053         0.51022
C         23.46933        15.00347         0.41747
C         23.44636        16.46014         0.70257
C         24.73263        14.23801         0.57855
C         24.64794        17.14657         0.82343
C         23.45036        19.28006         0.87078
C         24.67613        18.58555         0.87111
C         25.75426         1.99845        -0.84303
C         25.81306         3.40609        -0.38961
C         26.97277         1.32964        -1.15597
C         27.09109         4.19823        -0.70288
C         25.90545         6.28602        -0.25409
C         25.94183         7.73888         0.04236
C         27.04813         5.66639        -0.70748
C         27.19865         8.49664        -0.22485
C         25.89836        10.65292         0.22224
C         25.90972        12.03830         0.40452
C         27.12765         9.97985        -0.26945
C         27.19744        12.74555         0.60918
C         25.90813        14.93357         0.70230
C         25.90970        16.38954         0.94204
C         27.21396        14.23904         0.79338
C         27.23016        17.12616         0.89249
C         25.93145        19.26186         0.78052
C         27.16475        18.59151         0.66532
C         28.17643         2.01152        -1.39847
C         28.15353         3.48665        -1.45650
C         29.39445         1.36238        -1.72231
C         29.45860         4.25593        -1.70147
C         28.21995         6.43992        -1.32331
C         28.39565         7.83075        -0.77569
C         29.52175         5.67770        -1.35496
C         29.61473         8.48045        -0.82700
C         28.42824        10.70182        -0.36037
C         28.50046        12.03952         0.30224
C         29.72246        10.00374        -0.80334
C         29.77938        12.79665         0.17710
C         28.46290        14.99988         0.49281
C         28.45779        16.37406         0.49836
C         29.62498        14.27355        -0.16586
C         29.65346        17.13625         0.17173
C         28.35798        19.25849         0.36170
C         29.59081        18.56555         0.16111
C         30.59513         2.05914        -1.87449
C         30.68518         3.46219        -1.77431
C         31.91659         4.16524        -1.64855
C         30.76300         6.32428        -1.28459
C         30.82420         7.76177        -1.09972
C         31.95733         5.52473        -1.43090
C         32.05901         8.50613        -1.13692
C         31.00429        10.54432        -0.12414
C         31.01475        12.07957        -0.26531
C         32.16757         9.81021        -0.75385
C         32.10996        12.84972        -0.50878
C         30.93838        15.01509        -0.15345
C         30.89090        16.47830        -0.08451
C         32.07741        14.29458        -0.39981
C         32.04373        17.25683        -0.30137
C         30.77433        19.30631        -0.08765
C         31.98157        18.65551        -0.29996
O         20.06954         5.99768         1.71003
O         16.05254        15.52437        -0.50176
O         17.84656        14.66114         2.47867
O          2.44812        12.90313         0.30144
O          6.92628        10.12042        -0.78569
O          6.23777         8.41009         2.31584
O         21.47554         8.10184        -1.09259
O         22.80111        14.70332        -0.87198
O         10.39912         8.10412         2.71404
O         27.51500        10.66104        -1.51759
O         10.76363        16.23305        -1.20660
O         29.37764        12.22098         1.46615
O         26.66130        16.72311         2.17652
O         16.52799         6.10865        -1.64806
O         26.89104         8.03875         1.15184
O         27.25721        13.34118         1.95561
O         26.85919         3.62801         0.61919
O         10.65451         2.79228        -0.90768
O         18.96290        12.60901        -0.63552
O         11.61058        10.29095         2.77447
O         12.41167         6.52579        -0.83675
O          2.36783        10.44726         0.99132
O         10.17113        15.07524         2.16705
O          5.50879        16.21166         0.72340
O         28.44372         4.00256        -2.78639
O          4.70026        14.98218        -2.82852
O          3.09147         7.11668         1.69018
O         16.64738         9.96522         2.09838
O          6.90643        13.81415         1.80473
O         16.53023         8.68291        -1.24172
O         27.82639         6.63979        -2.73402
H         27.92076         5.75660        -3.17267
O         31.04231        10.20046         1.27372
H         30.47499        10.84919         1.76188
O          6.93300         3.94195         2.67548
H          7.48002         4.53766         3.22874
O         21.06509        10.46628         2.41396
H         21.91485        10.85275         2.71689
O         22.49342         5.27425         2.04123
H         21.61217         5.18632         2.47694
O         14.39238         7.12794         2.21014
H         14.65904         7.87910         2.78481
O          5.80008        19.87153        -0.13648
H          5.57767        19.17053         0.51187
O          6.56252         3.60657        -0.94013
H          5.94516         3.07043        -1.47995
O         29.92504        10.36954        -2.19154
H         29.05243        10.29420        -2.64253
O         29.22203        14.20142        -1.58616
H         29.34980        15.09016        -1.98129
H          0.38198         1.27735        -0.22519
H          0.26626         3.74150        -0.36680
H          2.53694         0.13612         0.28430
H          0.36479         5.62283        -0.89091
H          0.29522         8.04697        -1.10990
H          0.42355         9.93997        -1.69872
H          0.59454        12.23546        -2.36635
H          0.81705        14.11017        -2.98709
H          1.09263        16.39522        -3.81764
H          2.27396        18.61791        -3.75306
H          4.88205         0.24724         0.89098
H          4.19357        19.97991        -2.99567
H          7.33045         0.30749         1.20946
H          6.51300        20.05115        -2.06281
H          9.75243         0.30122         1.03786
H          8.78083        20.22069        -1.09969
H         12.32933         0.33649         0.59615
H         11.16067        20.25157        -0.41861
H         14.67301         0.34838        -0.00985
H         13.54859        20.31908         0.17635
H         17.09427         0.31702        -0.36148
H         15.98849        20.35058         0.56686
H         19.59517         0.31319        -0.62549
H         18.47816        20.39470         0.81661
H         22.03947         0.33088        -0.89034
H         20.97873        20.39377         0.89154
H         24.44959         0.31774        -1.19917
H         23.45537        20.38012         0.88802
H         26.95173         0.23699        -1.28726
H         25.92448        20.35921         0.69379
H         29.40803         0.26364        -1.76373
H         28.35014        20.35369         0.25501
H         31.52507         1.48614        -2.00532
H         32.85652         3.59890        -1.72274
H         32.93683         6.01419        -1.34893
H         32.96589         7.99214        -1.48945
H         33.15514        10.29471        -0.78340
H         33.07709        12.38744        -0.75379
H         33.04304        14.81122        -0.49853
H         33.01014        16.76990        -0.48794
H         30.72639        20.40441        -0.09749
H         32.89576        19.23801        -0.47939
