         297
 CSIRO Nanostructure Databank - Neutral Graphene Oxide Data Set
C        -10.14957         0.97122        -2.65931
C         -9.38355         1.69561        -1.56349
C         -8.09802         0.89024        -1.26562
C         -7.14206         1.57685        -0.31146
C         -6.21295         0.81951         0.34510
C         -5.05252         1.48728         0.97558
C         -3.75302         0.73442         0.89504
C         -2.46018         1.44117         0.96240
C         -1.29669         0.79222         1.69609
C          0.04956         1.55083         1.50283
C          1.36735         0.82444         1.63339
C          2.60552         1.59742         1.28859
C          3.92921         0.86336         1.34323
C          4.83729         1.46685         0.23038
C          6.19673         0.72285         0.11470
C          7.15455         1.42235        -0.89207
C          8.50848         0.69977        -0.97413
C          9.37344         1.35995        -2.02164
C         10.32796         0.57208        -2.68072
C         -9.05050         3.13631        -1.97466
C         -8.09316         3.83365        -1.02780
C         -7.11923         3.04879        -0.26319
C         -6.18624         3.72306         0.49540
C         -5.05369         2.97670         1.09495
C         -3.72966         3.69116         1.13953
C         -2.49649         2.92548         0.75279
C         -1.21328         3.65210         0.60394
C          0.08020         2.92154         0.83999
C          1.35233         3.70883         0.88839
C          2.61667         2.96902         1.19553
C          3.87877         3.74114         0.95602
C          5.05028         2.96052         0.45654
C          6.03718         3.60000        -0.48476
C          7.38025         2.91030        -0.55805
C          8.33065         3.55165        -1.54190
C          9.28475         2.76893        -2.18627
C         -8.05160         5.20281        -1.02269
C         -7.17978         5.97718        -0.15531
C         -6.36432         5.19057         0.85804
C         -5.03858         5.92390         1.15360
C         -3.73385         5.17726         1.03978
C         -2.54227         5.89022         0.47845
C         -1.23613         5.15606         0.41815
C          0.00114         5.94919         0.71090
C          1.28502         5.22237         1.00020
C          2.61090         6.00180         1.13403
C          3.84265         5.23457         0.66073
C          4.87844         5.86874        -0.21481
C          5.93889         5.03422        -0.87529
C          7.16503         5.72503        -1.35554
C          8.25779         4.97947        -1.71783
C         -7.15369         7.34236        -0.14891
C         -6.41448         8.10510         0.95104
C         -5.04501         7.42061         1.18526
C         -3.73450         8.20667         1.02103
C         -2.58817         7.39735         0.40727
C         -1.31325         8.13411         0.16780
C          0.01536         7.36735         0.11559
C          1.20540         8.21800         0.52316
C          2.51587         7.47940         0.61160
C          3.54128         8.06414        -0.33595
C          4.73425         7.23963        -0.85373
C          6.08904         7.99428        -0.72361
C          7.15657         7.23278        -1.56672
C         -6.27163         9.60839         0.81654
C         -5.11216        10.26580         0.67052
C         -3.88105         9.52382         0.20417
C         -2.54716        10.26741         0.26719
C         -1.33909         9.62892         0.26731
C         -0.05340        10.31061         0.12518
C          1.14238         9.65913         0.10987
C          2.46686        10.41280         0.06901
C          3.53324         9.53662        -0.59923
C          4.80161        10.12880        -1.11337
C          5.94321         9.42898        -1.20221
C        -10.11845        -0.36601        -2.78066
C         -9.38843        -1.22798        -1.81037
C         -8.42818        -0.54697        -0.87586
C         -7.38768        -1.38803        -0.18730
C         -6.28884        -0.68490         0.61353
C         -4.90808        -1.36197         0.38146
C         -3.80785        -0.71952         1.23278
C         -2.53885        -1.43961         1.56257
C         -1.18043        -0.71626         1.29852
C          0.03098        -1.40156         1.98242
C          1.37630        -0.68501         1.65463
C          2.53700        -1.38675         1.48963
C          3.84663        -0.68668         1.25920
C          4.99566        -1.45944         0.64022
C          5.96089        -0.74960        -0.30957
C          7.27698        -1.45883        -0.56459
C          8.32847        -0.79781        -1.13828
C          9.42893        -1.53647        -1.74732
C         10.38795        -0.81504        -2.50404
C         -9.10191        -2.62586        -2.19636
C         -8.02886        -3.32374        -1.74816
C         -7.18361        -2.81513        -0.63760
C         -5.89644        -3.49950        -0.32230
C         -4.89814        -2.87460         0.34956
C         -3.52912        -3.56186         0.43961
C         -2.63127        -2.98310         1.57599
C         -1.25103        -3.66559         1.51447
C          0.04134        -2.91412         1.64675
C          1.36821        -3.60542         2.00282
C          2.48617        -2.90268         1.17120
C          3.85920        -3.64767         1.33461
C          4.91443        -2.95391         0.46937
C          6.18306        -3.66756         0.13377
C          7.45947        -2.88910        -0.15307
C          8.40579        -3.65978        -1.03824
C          9.40273        -2.94168        -1.74273
C         -7.63308        -4.61824        -2.43379
C         -6.79425        -5.52486        -1.55810
C         -5.59102        -4.85620        -0.93048
C         -4.76923        -5.69289         0.05727
C         -3.69835        -5.07472         0.65140
C         -2.57291        -5.83794         1.28456
C         -1.34787        -5.13106         1.93196
C          0.01304        -5.91746         1.84749
C          1.32896        -5.16812         1.88970
C          2.70559        -5.90803         1.79468
C          3.72470        -5.13996         0.91537
C          5.11713        -5.92047         0.97354
C          6.43788        -5.09661         0.63023
C          7.35480        -5.81848        -0.36865
C          8.35265        -5.04843        -1.05439
C         -6.91844        -6.85753        -1.63436
C         -6.13263        -7.80075        -0.76981
C         -4.94149        -7.16544        -0.03804
C         -3.63902        -7.92212         0.11971
C         -2.46922        -7.27655         0.83300
C         -1.10967        -7.92774         0.67216
C         -0.05493        -7.47483         1.69810
C          1.28557        -8.14722         1.30219
C          2.62924        -7.38356         1.32047
C          3.74107        -7.96807         0.53069
C          4.97518        -7.19030         0.11259
C          6.27337        -8.04222         0.13215
C          7.31788        -7.17725        -0.53567
C         -5.75934        -9.08546        -1.48215
C         -4.58394        -9.71918        -1.39580
C         -3.33696        -9.11560        -0.79717
C         -2.54198       -10.01423         0.07819
C         -1.28374        -9.53426         0.72920
C         -0.01870       -10.12170         0.09105
C          1.24333        -9.39057         0.49003
C          2.40502        -9.95486         0.04444
C          3.65790        -9.25755         0.04675
C          4.79914        -9.88393        -0.62680
C          6.02520        -9.33409        -0.61529
O          0.39310         5.70734         2.08530
O          0.70649        -5.66635         3.11209
O         -9.76873        -0.87274        -0.41491
O          0.74931         1.50967         2.78452
O         -2.18876         7.77166        -0.95695
O          4.51604         1.15434         2.62607
H          3.96461         0.73929         3.32128
O         -6.60964        -0.79932         2.01039
O          2.86278         8.62833        -1.53317
O          4.55397         6.97757        -2.25664
H          3.86006         7.60461        -2.58241
O          8.00410         2.99892         0.78708
H          8.64489         0.66562         1.00357
O         -1.92735         3.12126        -0.56835
O         -4.20882         9.25606        -1.18022
H         -3.41135         8.88132        -1.62313
O         -3.30115         8.59086         2.34061
H         -3.72490         7.97422         2.98253
O         -5.31457         2.13463         2.26731
O          5.03314         3.41970         1.81784
O          2.20941        -8.24940         2.43120
O         -5.05748         6.65625         2.42699
O         -1.97912         5.43771        -0.79265
O         -2.89512        -6.95193         2.18446
O         -0.55109        -7.52181        -0.57642
H         -1.21391        -7.70022        -1.29695
O         -7.08422        -8.21591         0.25549
H         -6.55705        -8.57604         1.00465
O          1.97034         8.22092         1.77237
O         -3.27749        -3.39173         2.78372
H         -3.63848        -2.58601         3.22656
O          5.13506        -3.47999        -0.87388
O         -0.18289       -10.09085        -1.33778
H          0.70541       -10.08205        -1.75215
O          3.13980        -5.91215         3.16575
H          2.93810        -6.80283         3.53419
O         -2.93358         0.87794        -0.31363
O         -4.74504        -4.62918        -2.06021
O          1.65605        -3.31336         3.38673
H          1.27616        -4.05832         3.91347
H         -7.24065        -1.55097         2.10419
O          7.72032         4.31601         1.31714
H          6.92960         4.15780         1.90227
O          5.00462        -1.16309         2.05137
O         -4.69364        -8.05767         1.10341
O          6.59567         1.36511        -2.22030
H          5.79678         1.94570        -2.25330
O         -8.78374        -5.28908        -2.94098
H         -9.37296        -5.50034        -2.18795
O          8.27347        -2.72706         1.13207
O         -2.53221        -8.62223        -1.90814
H         -1.94492        -9.35950        -2.19564
O         -1.61996        -5.08457         3.34135
H         -2.03405        -5.94312         3.58578
O         -0.14577        -1.29842         3.40638
H          0.55783        -1.85943         3.82140
O         -0.46093        -3.34221         0.34060
O          5.04208         5.89267         1.22761
O          2.85558        10.78930         1.38990
H          2.71662        10.00870         1.97607
O          7.20925        -5.00520         1.80588
O         -3.45977         4.50293         2.32204
O          9.25808         0.84834         0.24799
O          0.87372         3.11216        -0.37871
O         -1.31679       -10.01192         2.06904
H         -1.99862        -9.51771         2.57185
O          7.37224        -2.50016         2.20826
H          7.13790        -3.45664         2.45886
O          5.45848         3.96144        -1.77302
O          8.43756         7.77972        -1.27519
H          8.44641         7.97292        -0.31026
O         -3.44329        -0.94692         2.61525
O         -7.96978        -2.48350         0.57456
O          3.15227        -5.20612        -0.40059
H          3.54935        -4.47681        -0.93985
O          6.72457        -8.40978         1.44524
H          6.37545        -7.73011         2.07859
O          6.55361         8.07300         0.63469
H          6.20325         7.31873         1.16213
O         -0.88771        -0.78019        -0.10089
H         -1.62691        -0.34718        -0.59833
O          0.29922         7.13004        -1.28779
H         -0.55706         6.88397        -1.71501
O          5.27026        -0.81238        -1.59214
H          5.83869        -0.34110        -2.25269
O         -7.22693         7.95219         2.13240
H         -7.26322         6.98707         2.35721
O        -10.18524         1.79329        -0.37706
H        -10.40260         0.86955        -0.09862
O         -1.66182         0.92429         3.07002
H         -1.01292         0.41392         3.61062
O         -4.54478        -1.01004        -0.98069
H         -3.81717        -1.61824        -1.26272
O         -2.87737        -3.31671        -0.82023
H         -3.42855        -3.80359        -1.51581
O          4.85086        -6.87960        -1.29576
H          3.99244        -6.40724        -1.41772
O          4.11725         1.41446        -1.01336
H          4.12683         0.48102        -1.35408
O         -7.35100         0.74796        -2.50454
H         -7.43612         1.59152        -3.01222
O          4.33178        -3.56667         2.67482
H          3.87490        -4.25222         3.21961
O          2.85989         6.06939         2.54845
H          2.06656         6.46819         2.97213
O          2.18175        -2.92556        -0.23201
H          1.22841        -2.72626        -0.37534
O         -7.13937         5.17566         2.08902
H         -6.61702         4.69695         2.76890
O         -0.42925        -7.93336         2.99722
H          0.26827        -7.62079         3.61614
O          6.85374         0.72497         1.38355
H          6.28344         0.24696         2.04079
O         -8.45336         3.10844        -3.28785
H         -8.16628         4.01626        -3.51846
O          5.30263        -6.38514         2.31229
H          6.06782        -5.83591         2.66823
H         11.17925        -1.38104        -3.01865
H         11.04966         1.05507        -3.35662
H          9.98350         3.25714        -2.88463
H          9.12067         5.49524        -2.16720
H          6.94093         7.41590        -2.65390
H          6.85686         9.92161        -1.56956
H          4.77538        11.18427        -1.42625
H          2.35370        11.35333        -0.52873
H         -0.07350        11.40283        -0.01484
H         -2.56636        11.36886         0.23756
H         -5.09284        11.36633         0.69137
H         -7.18573        10.17566         1.05074
H         -7.81031         7.89740        -0.83748
H         -8.74285         5.76237        -1.67391
H        -10.00691         3.72728        -2.02921
H        -10.73611         1.57422        -3.36914
H        -10.67072        -0.86462        -3.59268
H         -9.68069        -3.04521        -3.03556
H         -6.99438        -4.34648        -3.31920
H         -7.74467        -7.29430        -2.21795
H         -6.59162        -9.58542        -2.00255
H         -4.45307       -10.68958        -1.90044
H         -3.10823       -10.76537         0.65493
H          0.06587       -11.19543         0.42363
H          2.36013       -10.92012        -0.48592
H          4.62435       -10.85490        -1.11554
H          6.88045        -9.85754        -1.06908
H          8.02708        -7.64461        -1.24162
H          9.12057        -5.59676        -1.62598
H         10.15134        -3.49913        -2.32765
