         232
 CSIRO Nanostructure Databank - Neutral Graphene Oxide Data Set
C        -10.51639         0.54731         1.57927
C         -9.56452         1.33502         0.83082
C         -8.49725         0.66554         0.14985
C         -7.37517         1.37414        -0.28749
C         -6.14052         0.69778        -0.64940
C         -4.91264         1.48193        -0.73964
C         -3.59070         0.83490        -1.14534
C         -2.41483         1.53425        -0.49570
C         -1.23768         0.83242        -0.04228
C         -0.08332         1.51029         0.27060
C          1.13706         0.79287         0.67303
C          2.44636         1.54142         0.55550
C          3.65962         0.74626         0.33287
C          4.79359         1.37109        -0.21451
C          5.84545         0.54216        -0.58935
C          7.78510         1.64793        -0.74352
C          8.88019         0.81417        -0.46813
C         10.20441         1.52583        -0.44471
C         11.32154         0.62733         0.01191
C         -9.58185         2.75000         0.93319
C         -8.57220         3.53901         0.37993
C         -7.45715         2.84148        -0.29052
C         -6.16811         3.60828        -0.47541
C         -4.90735         2.86059        -0.61463
C         -3.67852         3.64181        -0.71220
C         -2.43508         2.91367        -0.57364
C         -1.25251         3.70882        -0.21288
C         -0.01257         2.98013         0.21384
C          1.28429         3.63913        -0.02998
C          2.43988         2.93120         0.04730
C          3.73343         3.63066        -0.18913
C          4.98711         2.85647        -0.33781
C          6.28564         3.50338         0.20268
C          7.63115         2.96151        -0.28792
C          8.84899         3.61463         0.16414
C         10.06194         2.90586         0.17818
C         -8.55131         4.97196         0.47084
C         -7.40320         5.72555         0.25057
C         -6.12987         4.99761         0.04899
C         -4.85249         5.75229        -0.16498
C         -3.68369         5.03473        -0.69265
C         -2.46114         5.82853        -0.95192
C         -1.15031         5.09102        -0.75787
C          0.06730         5.86217        -0.46919
C          1.31277         5.07563        -0.40520
C          2.59965         5.81424        -0.20584
C          3.74403         5.02355         0.39750
C          5.07252         5.71872         0.28698
C          6.25502         5.03384         0.21955
C          7.53482         5.74770         0.34221
C          8.75799         5.01685         0.41978
C         -7.30549         7.15028         0.45456
C         -6.15459         7.87733         0.21202
C         -4.95592         7.22268        -0.37228
C         -3.71619         8.00917        -0.71938
C         -2.41214         7.29275        -0.73194
C         -1.21623         7.95724        -0.50292
C          0.06106         7.24236        -0.41399
C          1.31281         7.96647        -0.14881
C          2.54101         7.27147        -0.00233
C          3.74968         7.92993         0.29764
C          4.99847         7.17052         0.56914
C          6.32096         7.93051         0.60971
C          7.54312         7.14724         0.39565
C         -6.01755         9.28112         0.55052
C         -4.89542         9.99983         0.30151
C         -3.74629         9.52729        -0.57155
C         -2.40400        10.09052        -0.17639
C         -1.23841         9.40209        -0.24150
C          0.04927        10.18402        -0.05582
C          1.32465         9.37314         0.01752
C          2.54378        10.03658         0.20461
C          3.77079         9.34334         0.33116
C          5.05007        10.03608         0.34674
C          6.24208         9.38497         0.37816
C        -10.46399        -0.81178         1.63175
C         -9.59434        -1.57663         0.72543
C         -8.58836        -0.78741        -0.10129
C         -7.42611        -1.48596        -0.81174
C         -6.13303        -0.69509        -0.77852
C         -4.88272        -1.45101        -0.99212
C         -3.57241        -0.69917        -1.05378
C         -2.33240        -1.39138        -0.52562
C         -1.38974        -0.61311         0.38920
C         -0.07087        -1.37115         0.54613
C          1.15038        -0.68238         0.62436
C          2.38515        -1.38011         0.70137
C          3.64380        -0.66149         0.52283
C          4.86777        -1.37078         0.42434
C          6.01793        -0.75014        -0.09340
C          7.36859        -1.36041         0.08971
C          8.70583        -0.60895        -0.08692
C          9.94471        -1.44219        -0.13730
C         11.21370        -0.71860        -0.01948
C         -9.37425        -3.00592         0.91711
C         -8.33776        -3.68139         0.23384
C         -7.27447        -2.94569        -0.41752
C         -6.07548        -3.64178        -0.71921
C         -4.87811        -2.92806        -0.83954
C         -3.58209        -3.63888        -0.79898
C         -2.36520        -2.86849        -0.33053
C         -1.43401        -3.44241         0.74293
C         -0.07286        -2.78204         0.63028
C          1.13904        -3.48950         0.76139
C          2.36742        -2.79511         0.76626
C          3.63793        -3.55615         0.86878
C          4.94343        -2.80682         0.71290
C          6.16511        -3.53011         0.28316
C          7.35860        -2.83551         0.11067
C          8.65684        -3.57553         0.29622
C          9.89125        -2.80265        -0.11194
C         -8.25161        -5.08694         0.26478
C         -7.52004        -5.80973        -0.83690
C         -6.16430        -5.08270        -1.23285
C         -4.86188        -5.97771        -1.05247
C         -3.63153        -5.13037        -0.64729
C         -2.62321        -5.75475         0.27170
C         -1.44683        -4.98440         0.79020
C         -0.13746        -5.74995         0.89814
C          1.16177        -4.97962         0.85820
C          2.41027        -5.66942         0.40313
C          3.65641        -4.98348         0.50795
C          4.87194        -5.64660         0.23206
C          6.10854        -4.96085         0.16999
C          7.34369        -5.65815        -0.17798
C          8.54690        -4.99515        -0.19069
C         -7.41037        -7.29739        -0.58817
C         -6.25932        -7.98590        -0.37497
C         -4.98791        -7.27836        -0.27252
C         -3.87303        -7.95488         0.12481
C         -2.59858        -7.25653         0.34252
C         -1.28879        -7.98499         0.31584
C         -0.10235        -7.09361         0.24266
C          1.04448        -7.48331        -0.40184
C          2.33927        -6.93893        -0.16792
C          3.57859        -7.70763        -0.62459
C          4.81374        -7.16118         0.14268
C          6.09275        -7.77895        -0.37767
C          7.25628        -7.07253        -0.49520
C         -6.21858        -9.44677        -0.27974
C         -5.09929       -10.11980         0.04807
C         -3.86080        -9.41316         0.53807
C         -2.54699       -10.08862         0.13250
C         -1.33295        -9.46889         0.05176
C         -0.07341       -10.23377         0.01631
C          1.08343        -9.71339        -0.49389
C          2.46803       -10.10088        -0.33680
C          3.55079        -9.24978        -0.44603
C          4.85384        -9.88609        -0.49811
C          6.03471        -9.20680        -0.57494
O          0.94793        -8.55595        -1.29560
O          4.63573        -7.63558         1.50663
H          5.33161        -7.23092         2.06572
O         -3.42640         1.16410        -2.55528
H         -3.90233         0.46985        -3.06955
O         -9.85622        -1.17704        -0.71306
O          6.24810         3.12167         1.62068
H          7.08023         3.43071         2.04003
O          2.22024         5.37880        -1.53858
O          4.46229        -3.21088         2.03586
O         -3.11477        -4.53153        -1.88284
O         -4.12662        -1.22691        -2.28265
O         -3.91128        -9.50216         1.99243
H         -3.18220        -8.92278         2.32547
O         -0.87609         3.65703         1.20542
O         -1.64775        -2.26666        -1.45803
O         -6.23292        -4.83194        -2.66820
H         -6.43091        -3.88179        -2.81798
O         -8.44143        -5.68334        -1.95588
H         -7.87886        -5.47684        -2.74522
O         10.55737         1.81308        -1.86351
H          9.86603         2.41180        -2.22036
O         -4.65055         7.56491        -1.77140
O         -4.02401        10.09958        -1.88419
H         -4.57185         9.43386        -2.36268
O          8.80567        -3.65066         1.77139
H          8.67106        -2.73299         2.10510
O         -7.79132        -1.56411        -2.23368
H         -8.77762        -1.60796        -2.25722
O          8.05779        -0.75934         1.26613
O          3.45858         4.91384         1.81530
H          4.22105         4.47402         2.25064
O         -1.96570        -7.70148         1.59845
O          1.80005         1.35874         1.85796
O         -0.09325        10.98660         1.12353
H          0.77796        11.37127         1.34899
O         -4.54681        -6.51955        -2.35314
H         -4.30033        -5.76035        -2.92998
O          6.76258         1.05714        -1.48320
O          4.37147         3.47801        -1.49984
O         -7.08662         3.45293        -1.59187
O          5.61225         7.52254         1.84998
O         -1.68434         5.30755        -2.08964
O          0.62511        -5.53662         2.12167
O         -2.58025        -5.31031         1.66720
O         -5.21263         5.24320         1.17197
O          3.76147        -7.44499        -2.03105
H          2.98574        -7.81455        -2.50466
O         -1.97540        -3.00273         2.01096
H         -1.64764        -3.60301         2.71330
O         -2.07017        -0.50404         1.66683
H         -1.45128        -0.10373         2.31303
H         12.10535        -1.33370         0.18155
H         12.30435         1.08921         0.19041
H         10.98969         3.45405         0.40457
H          9.68368         5.57818         0.61798
H          8.50617         7.67884         0.34936
H          7.18076         9.94694         0.25980
H          5.03461        11.13007         0.22767
H          2.55537        11.13746         0.25213
H          0.14985        10.87861        -0.95012
H         -2.36981        11.17179         0.02552
H         -4.86572        11.05723         0.60619
H         -6.85579         9.75506         1.08502
H         -8.19219         7.67853         0.83895
H         -9.47472         5.48262         0.78506
H        -10.40716         3.22965         1.48046
H        -11.23346         1.08854         2.21449
H        -11.11621        -1.36716         2.32146
H        -10.08370        -3.57985         1.52958
H         -9.00139        -5.64917         0.84372
H         -8.35939        -7.84978        -0.66842
H         -7.13713        -9.99338        -0.54372
H         -5.10797       -11.21982         0.08560
H         -2.57433       -11.18752         0.05347
H         -0.05241       -11.20133         0.54020
H          2.68056       -11.16222        -0.12399
H          4.86806       -10.98547        -0.56333
H          6.97469        -9.75598        -0.73602
H          8.17602        -7.58871        -0.81269
H          9.46812        -5.54385        -0.43994
H         10.83963        -3.36454        -0.09987
