         620
 CSIRO Nanostructure Databank - Neutral Graphene Oxide Data Set
C         24.63557        27.06420         2.29665
C         24.64158        28.45504         2.33583
C         24.00998        31.29782         1.74462
C         23.76377        32.60099         1.46891
C         23.40499        35.54208         1.13895
C         23.28299        36.92085         0.99342
C         23.06989        39.91429         0.86297
C         23.06036        41.28771         1.00081
C         23.01909        44.29840         1.41439
C         23.08988        45.54782         1.91129
C         26.31699        24.25565         0.46680
C         25.43248        24.94211         1.28231
C         26.16413        27.12303         0.39407
C         25.38735        26.37979         1.31099
C         26.18840        28.54384         0.44222
C         25.38845        29.20649         1.41782
C         26.08818        31.41653         0.38411
C         25.38164        30.71454         1.51614
C         25.88029        32.82586         0.21943
C         24.75147        33.44706         0.83757
C         25.66618        35.64488         0.21955
C         24.58032        34.86506         0.72594
C         25.58545        37.06732         0.22469
C         24.35463        37.70817         0.54571
C         25.51906        39.90968         0.38113
C         24.20689        39.18227         0.20329
C         25.48791        41.33468         0.77610
C         24.21618        42.08129         0.82565
C         25.50382        44.33595         0.76849
C         24.20802        43.56846         0.88770
C         25.63325        45.62495         1.57480
C         24.39013        46.20318         2.20340
C         25.64565        48.19164         2.96608
C         24.46450        47.61004         2.67149
C         28.23136        22.87067        -1.36989
C         28.21858        24.31360        -1.16051
C         27.16206        24.94018        -0.43074
C         28.01657        27.15438        -1.27640
C         26.85405        26.38174        -0.72995
C         27.76635        28.59306        -1.55843
C         27.01406        29.30563        -0.45815
C         27.81588        31.47153        -1.38388
C         27.01203        30.72823        -0.42942
C         27.72946        32.98721        -1.55387
C         26.79670        33.60629        -0.54058
C         27.94824        35.78817        -0.76116
C         26.79913        35.00989        -0.38217
C         27.96902        37.17764        -0.48539
C         26.76563        37.82962        -0.07499
C         27.96267        40.02086        -0.08734
C         26.71023        39.25343         0.13614
C         28.01169        41.46259         0.26529
C         26.78507        42.08806         0.85318
C         27.95423        44.11754         0.36010
C         26.76498        43.54683         0.67005
C         28.02412        46.15897         0.95981
C         26.87249        46.46609         1.63241
C         28.30052        48.24209         2.81155
C         26.94021        47.51524         2.68177
C         28.44634        49.57165         3.44900
C         30.42586        22.97486        -2.49391
C         29.20492        22.25627        -2.07740
C         30.36838        24.50271        -2.52432
C         29.22486        25.09740        -1.73961
C         30.33606        27.32299        -2.13542
C         29.17411        26.54081        -1.71698
C         30.24264        28.74218        -2.26131
C         28.98967        29.35025        -1.98588
C         30.46971        31.78707        -2.49340
C         28.65246        30.72600        -2.19271
C         30.34390        33.04698        -1.78222
C         29.07338        33.74882        -1.55997
C         30.36128        35.89031        -1.43702
C         29.13880        35.10376        -1.22622
C         30.32275        37.33031        -1.22543
C         29.20019        37.92532        -0.69722
C         30.39589        40.19564        -0.59341
C         29.28949        39.30052        -0.07794
C         30.45229        41.55533        -0.17539
C         29.31075        42.15135         0.37505
C         30.50574        44.41504         0.66683
C         29.25991        43.56720         0.87924
C         30.54721        45.77503         0.92823
C         29.35756        46.57229         1.29897
C         30.69281        48.51380         1.92326
C         29.44943        47.73932         2.02920
C         30.76219        49.85046         2.58975
C         29.59900        50.26661         3.41740
C         33.01529        20.21368        -1.82035
C         31.82754        20.82019        -2.04654
C         32.95912        23.05960        -2.00369
C         31.76141        22.26211        -2.34669
C         32.83381        24.48232        -1.85552
C         31.64836        25.18740        -2.07400
C         32.80151        27.37026        -2.04736
C         31.60517        26.63298        -2.09432
C         32.84004        28.75942        -2.51517
C         31.49482        29.50413        -2.64305
C         32.85648        31.69949        -2.34348
C         31.59605        30.99165        -2.47246
C         32.84701        33.10660        -2.29356
C         31.68303        33.83686        -1.78621
C         32.75867        36.08653        -2.20728
C         31.56144        35.29445        -1.81502
C         32.81351        37.51454        -1.81267
C         31.44661        38.18007        -1.81414
C         32.85687        40.38716        -1.23145
C         31.49452        39.63371        -1.34514
C         32.88473        41.64168        -0.45125
C         31.72031        42.27729        -0.10251
C         33.04097        44.37080         0.45059
C         31.77731        43.57467         0.71809
C         33.05019        45.77398         0.69607
C         31.83752        46.47230         1.04181
C         33.15113        48.52904         1.50951
C         31.90741        47.79672         1.48259
C         33.23632        49.81187         2.06325
C         32.12564        50.44832         2.88711
C         33.19925        52.67488         2.47115
C         32.09052        51.95186         2.68795
C         35.63330        18.88413        -1.82121
C         35.49715        20.31019        -1.61718
C         34.25268        20.96079        -1.72849
C         35.36421        23.15692        -1.38785
C         34.16957        22.40095        -1.70281
C         35.30585        24.55693        -1.25148
C         33.99906        25.21776        -1.33751
C         35.27551        27.45479        -1.42684
C         33.98400        26.74839        -1.46785
C         35.30067        28.83345        -1.67497
C         34.19761        29.49387        -2.49573
C         35.26761        31.68827        -1.97829
C         34.10739        30.99134        -2.25483
C         35.37642        33.11722        -2.25676
C         34.07095        33.85332        -2.53322
C         35.33306        36.03057        -2.21517
C         34.05678        35.34341        -2.45620
C         35.26814        37.50362        -2.24425
C         34.00213        38.21495        -1.87679
C         35.32347        40.23869        -1.25201
C         34.09811        39.60957        -1.46190
C         35.42185        41.52074        -0.49790
C         34.18489        42.16357         0.12250
C         35.45933        44.40368         0.03987
C         34.22416        43.68815         0.14858
C         35.48404        45.81017         0.29168
C         34.28374        46.49724         0.64643
C         35.55795        48.60194         0.86137
C         34.33643        47.87980         0.99729
C         35.65366        49.97726         1.30278
C         34.51974        50.51699         2.07027
C         35.70877        52.81475         1.94154
C         34.53021        52.03838         2.35749
C         35.72925        54.22480         2.06873
C         38.06989        19.00794        -1.52532
C         36.84235        18.26731        -1.83032
C         37.93398        20.42032        -1.14185
C         36.68608        21.06780        -1.31919
C         37.76359        23.22721        -0.79757
C         36.60334        22.48295        -1.16375
C         37.69944        24.65189        -0.71731
C         36.47281        25.32242        -0.96664
C         37.64310        27.50096        -0.76831
C         36.44645        26.76561        -1.01171
C         37.63306        28.92206        -0.86330
C         36.46256        29.55897        -1.33343
C         37.66365        31.82001        -1.07001
C         36.41229        31.02712        -1.33717
C         37.72170        33.24447        -1.46346
C         36.57370        33.90094        -1.88433
C         37.78403        36.05776        -1.80184
C         36.53543        35.34409        -2.00704
C         37.81327        37.45973        -1.84761
C         36.58003        38.22905        -2.07375
C         37.78616        40.30584        -1.58858
C         36.57121        39.62034        -1.59592
C         37.74049        41.81080        -1.59095
C         36.68127        42.31164        -0.62909
C         37.89839        44.45056        -0.40386
C         36.67724        43.75981        -0.32199
C         37.94122        45.85901        -0.13496
C         36.71203        46.53100         0.18646
C         37.90366        48.70473         0.02381
C         36.70884        47.93374         0.38178
C         37.93786        50.19089         0.36338
C         36.79625        50.74951         1.10859
C         38.07867        52.88159         1.26165
C         36.87241        52.14441         1.48577
C         38.10259        54.29345         1.48920
C         36.88784        54.94091         1.85989
C         40.35118        16.12667        -0.26172
C         39.39353        16.78216        -0.96228
C         40.23801        19.02229        -0.15896
C         39.35087        18.25596        -1.03639
C         40.19389        20.41867        -0.10479
C         39.05353        21.13292        -0.63631
C         40.11849        23.28670        -0.02391
C         38.97709        22.54631        -0.48521
C         40.07120        24.71731        -0.00491
C         38.87634        25.39825        -0.37750
C         40.01102        27.56605        -0.04829
C         38.84424        26.81788        -0.39634
C         40.01687        28.99587        -0.18343
C         38.84860        29.67795        -0.60471
C         40.13037        31.80242        -0.72701
C         38.90945        31.08229        -0.81585
C         40.15995        33.22816        -0.96688
C         38.97058        33.93626        -1.30922
C         40.22764        36.04832        -1.38099
C         38.99447        35.34296        -1.51031
C         40.24870        37.46815        -1.51495
C         39.02745        38.18015        -1.67767
C         40.27403        40.31146        -1.76350
C         39.02663        39.61056        -1.70373
C         40.29512        41.76235        -1.70856
C         39.07797        42.46164        -1.34328
C         40.40092        44.40811        -0.67229
C         39.09970        43.73635        -0.80842
C         40.43955        45.90059        -0.37627
C         39.15926        46.60000        -0.19718
C         40.39923        48.75128        -0.21550
C         39.18442        48.00447        -0.13437
C         40.42101        50.16807         0.04258
C         39.24682        50.85269         0.44268
C         40.50891        52.93072         0.73060
C         39.28138        52.21555         0.82927
C         40.54080        54.32956         1.05473
C         39.32639        55.01952         1.36632
C         40.53750        57.14490         1.50412
C         39.36881        56.46247         1.47704
C         42.42954        16.21394         1.09176
C         41.33856        16.83333         0.52667
C         42.28962        19.06806         1.38777
C         41.14456        18.27961         0.72033
C         42.36016        20.50484         1.10669
C         41.27441        21.16720         0.51554
C         42.39949        23.34982         0.92484
C         41.27369        22.60609         0.43280
C         42.35440        24.78089         0.96091
C         41.19566        25.47086         0.44813
C         42.27799        27.68314         0.96585
C         41.15268        26.88188         0.43342
C         42.38937        29.06575         0.46158
C         41.25123        29.72363        -0.01028
C         42.56464        31.83047        -0.25982
C         41.32236        31.12217        -0.35567
C         42.60263        33.23274        -0.53338
C         41.39709        33.93147        -0.86961
C         42.67253        36.05571        -1.02558
C         41.43334        35.34132        -1.09937
C         42.70124        37.46144        -1.26100
C         41.48292        38.17814        -1.49230
C         42.77057        40.26612        -1.95962
C         41.48304        39.58530        -1.71417
C         42.76274        41.77586        -2.20583
C         41.48579        42.48539        -1.89096
C         42.44664        44.77964        -1.94805
C         41.48839        43.87660        -1.51258
C         42.71681        46.06642        -1.39090
C         41.62195        46.69049        -0.76417
C         42.84441        48.81244        -0.73703
C         41.62061        48.09248        -0.55515
C         42.86263        50.21447        -0.44669
C         41.66471        50.87570        -0.03010
C         42.91493        53.00169         0.16794
C         41.69480        52.26788         0.29639
C         42.93860        54.39815         0.50584
C         41.76708        55.03155         0.99212
C         42.99741        57.21014         1.01881
C         41.85165        56.41982         1.57502
C         43.48466        16.95174         1.72365
C         44.59076        19.12684         2.47317
C         43.49498        18.32022         1.79285
C         44.68657        20.53929         1.93097
C         43.57448        21.20567         1.43885
C         44.57049        23.37559         2.06059
C         43.56495        22.66029         1.37124
C         44.31169        24.72655         2.34600
C         43.37849        25.49676         1.63687
C         44.74594        27.77599         1.79194
C         43.42318        26.99813         1.66445
C         44.92882        29.00450         0.93306
C         43.70219        29.70126         0.35021
C         44.99965        31.83481         0.18211
C         43.76923        31.14538         0.08155
C         45.04677        33.23467        -0.13574
C         43.84432        33.93499        -0.47195
C         45.11253        36.05401        -0.64074
C         43.87819        35.34401        -0.72542
C         45.13118        37.47381        -0.83879
C         43.93955        38.18065        -1.18320
C         45.20893        40.27841        -1.33785
C         44.00292        39.57294        -1.49425
C         45.35078        41.65696        -1.94696
C         44.08222        42.47488        -2.08051
C         45.45605        44.64848        -2.39257
C         44.25830        43.75643        -2.49214
C         45.23419        46.05275        -1.76582
C         44.01343        46.72897        -1.49753
C         45.26623        48.86428        -1.17125
C         44.04015        48.12835        -1.12321
C         45.28299        50.27628        -0.92920
C         44.08198        50.94877        -0.56633
C         45.31694        53.09545        -0.40147
C         44.10035        52.35442        -0.27533
C         45.32361        54.50030        -0.11279
C         44.13016        55.15621         0.31007
C         44.07173        56.59439         0.47876
C         47.09641        19.15306         2.63071
C         45.93043        18.45092         2.53685
C         47.17217        20.57340         2.51128
C         45.98662        21.30397         1.94592
C         47.15609        23.48856         2.67233
C         45.83289        22.72139         2.49027
C         47.23358        24.96790         2.48700
C         46.16648        25.79663         2.74748
C         47.34105        27.80364         1.90395
C         46.07142        27.19179         2.31559
C         47.35731        29.16605         1.52446
C         46.15184        29.82599         1.11518
C         47.44447        31.87808         0.67265
C         46.19254        31.15865         0.65912
C         47.48697        33.20865         0.19808
C         46.29650        33.92809        -0.13007
C         47.54153        36.08996        -0.26916
C         46.32652        35.34562        -0.37903
C         47.53640        37.48677        -0.34056
C         46.34503        38.19984        -0.67250
C         47.63160        40.32514        -0.73785
C         46.37290        39.61403        -0.87337
C         47.65002        41.80537        -0.79209
C         46.43515        42.50968        -1.31920
C         47.73920        44.61301        -1.45978
C         46.58281        43.92072        -1.71551
C         47.72719        46.06222        -1.59232
C         46.47206        46.75674        -1.59573
C         47.73256        48.88508        -1.40302
C         46.49140        48.17062        -1.39187
C         47.71070        50.30984        -1.31735
C         46.51494        51.00605        -1.05078
C         47.71657        53.19174        -0.90909
C         46.52086        52.44122        -0.81542
C         47.70930        54.56943        -0.59032
C         46.54942        55.21184        -0.21826
C         49.64718        20.61022         2.68309
C         48.39582        21.29553         2.58812
C         49.64134        23.40467         2.26713
C         48.41895        22.72622         2.47676
C         49.68440        24.84726         2.10016
C         48.48972        25.60008         2.13991
C         49.78350        27.70038         1.86646
C         48.52746        27.02769         1.95686
C         49.79558        29.10932         1.74917
C         48.61527        29.84459         1.47522
C         49.90419        31.92063         1.07059
C         48.66139        31.22724         1.09097
C         50.00454        33.22312         0.55246
C         48.79573        33.84236         0.00258
C         50.06872        36.06079         0.14619
C         48.83172        35.37583        -0.20205
C         50.05511        37.52147         0.25495
C         48.76184        38.25194        -0.04621
C         50.09995        40.35254        -0.57938
C         48.79569        39.67005        -0.43472
C         50.14590        41.82384        -0.66958
C         48.93555        42.52904        -0.80801
C         50.20240        44.57926        -1.18524
C         48.95994        43.91491        -1.08138
C         50.20370        45.99179        -1.60790
C         48.94273        46.76601        -1.54853
C         50.24501        48.88992        -1.46014
C         48.97364        48.18109        -1.51872
C         50.25406        50.31572        -1.42845
C         48.97261        51.03713        -1.54949
C         50.27455        53.17018        -1.04381
C         48.97457        52.55626        -1.35411
C         50.83355        21.27078         2.49033
C         52.10922        23.33114         1.93143
C         50.86788        22.66688         2.21568
C         52.15221        24.75561         1.83365
C         50.94320        25.51093         1.93687
C         52.26909        27.58878         1.88992
C         51.01015        26.93913         1.90630
C         52.31989        29.05162         2.12390
C         51.04935        29.83226         1.99864
C         52.44285        31.90863         1.35533
C         51.11859        31.30290         1.64124
C         52.45990        33.26830         0.90494
C         51.24139        33.93368         0.56456
C         52.51327        36.07313         0.47136
C         51.26666        35.35562         0.33851
C         52.51600        37.51123         0.35934
C         51.35171        38.21634         0.17511
C         52.59765        40.43280        -0.08090
C         51.38039        39.63061        -0.24937
C         52.62547        41.77645        -0.42653
C         51.39182        42.49429        -0.70615
C         52.68691        44.60853        -0.94309
C         51.42027        43.89604        -0.95758
C         52.72692        46.00005        -1.13160
C         51.51500        46.73457        -1.54150
C         52.70924        48.89182        -1.25021
C         51.47583        48.19979        -1.39717
C         52.71006        50.31648        -1.23845
C         51.46296        51.02727        -1.30887
C         51.42722        52.46130        -1.10562
C         54.50413        23.24733         1.46141
C         53.31644        22.60712         1.74275
C         54.58664        24.66418         1.39669
C         53.40036        25.41961         1.61979
C         54.73591        27.50155         1.54058
C         53.46752        26.85294         1.68376
C         54.86474        28.94856         1.78676
C         53.63062        29.78362         1.98548
C         54.89055        31.83168         1.19672
C         53.63637        31.20164         1.53586
C         54.91876        33.23266         0.90911
C         53.70396        33.96035         0.80589
C         55.00593        36.07143         0.53025
C         53.73014        35.37986         0.60540
C         55.05302        37.49648         0.43422
C         53.79277        38.23762         0.54811
C         55.11105        40.38520         0.06691
C         53.82135        39.74573         0.35727
C         55.10869        41.78319        -0.23905
C         53.88645        42.49190        -0.42875
C         55.14782        44.59674        -0.67432
C         53.90464        43.89257        -0.67746
C         55.16260        46.01891        -0.82867
C         53.94618        46.72773        -1.02065
C         55.17686        48.86788        -1.05308
C         53.94918        48.16356        -1.12529
C         55.14683        50.29321        -1.09929
C         53.96466        50.98933        -1.17348
C         56.97548        24.61581         0.68312
C         55.82427        25.33875         1.08780
C         57.11734        27.44193         0.78975
C         55.88889        26.76799         1.16928
C         57.22315        28.85050         0.78044
C         56.13595        29.64770         1.36341
C         57.30390        31.72645         0.70806
C         56.09439        31.09443         1.08950
C         57.35580        33.15263         0.67009
C         56.17586        33.90209         0.72960
C         57.46681        36.02392         0.41370
C         56.20936        35.34061         0.56243
C         57.49609        37.44849         0.27386
C         56.27050        38.19416         0.30617
C         57.55794        40.31497        -0.03680
C         56.29720        39.63762         0.13167
C         57.58284        41.73596        -0.21339
C         56.35769        42.47022        -0.32936
C         57.62458        44.57987        -0.54651
C         56.37309        43.87923        -0.51807
C         57.63200        46.00320        -0.68234
C         56.40671        46.72973        -0.81089
C         57.68218        48.81563        -0.92739
C         56.42400        48.14581        -0.93180
C         58.14205        25.25811         0.31154
C         59.40618        27.33924        -0.11887
C         58.22998        26.67010         0.33082
C         59.47957        28.71000        -0.15120
C         58.38577        29.51790         0.29573
C         59.58280        31.66930        -0.22336
C         58.44996        30.94909         0.31230
C         59.69208        33.01938        -0.13284
C         58.71163        33.80916         0.69886
C         59.89327        35.97992         0.28802
C         58.68623        35.29376         0.41553
C         59.92576        37.36889         0.13964
C         58.74506        38.12755         0.13461
C         59.99033        40.28724        -0.11136
C         58.77175        39.57951        -0.00316
C         60.01973        41.66531        -0.23988
C         58.82895        42.42568        -0.29752
C         60.06977        44.59900        -0.45823
C         58.84871        43.86706        -0.43587
C         60.08280        45.97130        -0.57783
C         58.86982        46.70346        -0.69171
C         58.86500        48.12072        -0.81622
O         50.88250        39.71209        -1.66539
O         41.07854        18.68555         2.12733
O         42.37034        27.61261         2.46862
O         48.98781        34.43140        -1.32037
O         25.27078        45.31485         2.97400
O         29.34714        31.38923        -3.22279
O         39.21431        18.75604        -2.40292
O         44.61178        28.82904        -0.48053
O         27.79682        41.00602        -1.14712
O         33.69863        26.06935        -0.18674
O         55.89199        29.29161         2.77993
O         42.79207        40.83734        -3.33524
O         32.16608        28.95385        -3.81535
O         31.11872        22.48109        -3.68055
O         53.74061        39.15041         1.70754
O         53.06808        29.48332         3.30703
O         45.19122        28.03598         3.14205
O         36.49852        41.43451         0.53006
O         27.94443        45.38282        -0.20852
O         36.66019        31.59997         0.00856
O         32.00355        40.49935        -2.41806
O         34.90775        33.40119        -3.63131
O         40.73940        44.88552         0.66626
O         48.90353        51.96179        -2.69079
O         35.96436        38.08430        -3.40666
O         31.18033        33.16552        -0.58092
O         24.64329        44.26387        -0.39369
O         50.91831        30.86063         3.02764
O         26.26446        41.53017         2.07471
O         30.46186        49.79527         1.16260
O         27.82098        47.24418         3.80405
O         50.97666        46.25042        -2.83196
O         46.61461        42.34269         0.12436
O         43.17713        44.42103        -3.08715
O         37.62512        49.72886        -0.99820
O         34.85772        51.06551         3.40882
O         46.34960        22.99457         3.80393
O         49.20862        38.05204         1.36241
O         45.02722        25.32170         3.39126
O         33.25921        35.88341        -3.57443
O         34.16196        41.74021         1.52921
H         35.10882        41.69695         1.81152
O         59.18524        33.69811         2.09096
H         59.13724        32.75070         2.34164
O         25.84518        26.32022        -1.81365
H         25.88091        27.20126        -2.27550
O         23.89959        39.22161        -1.24347
H         24.68210        38.87678        -1.72458
O         30.14412        24.88958        -3.91098
H         30.63547        24.23667        -4.46106
O         44.14933        19.26732         3.86911
H         43.21332        19.56225         3.85760
O         45.78593        41.40259        -3.31818
H         45.01359        41.02863        -3.80040
O         46.32075        21.53656         0.52143
H         46.42819        20.66002         0.09460
O         29.56131        39.05160         1.34442
H         30.34480        38.46717         1.41585
O         26.84503        28.61608        -2.76465
H         27.38322        28.34068        -3.53945
O         34.71439        29.38164        -3.85717
H         33.94078        29.47991        -4.46054
O         27.12144        33.24032        -2.86202
H         27.66765        32.76311        -3.52588
O         29.09069        43.50034         2.33309
H         29.97422        43.25545         2.70209
O         42.13715        56.24206         3.01922
H         41.39612        55.71969         3.39426
O         32.40921        50.18084         4.28483
H         33.33549        50.48879         4.44274
O         31.09535        38.21641        -3.22676
H         31.57094        38.98528        -3.61909
O         31.85713        43.13608         2.12004
H         32.68215        42.58717         2.19655
O         37.30093        42.22706        -2.91947
H         37.91568        41.84360        -3.58002
O         45.87093        44.93098        -3.76323
H         45.06648        45.19544        -4.25926
O         26.17932        31.04384         2.71787
H         26.13435        32.01653         2.83929
H         24.05214        26.49044         3.03037
H         24.06021        28.97098         3.11269
H         23.23724        30.68368         2.22811
H         22.78355        33.02838         1.72359
H         22.54842        34.97370         1.52507
H         22.32479        37.39239         1.25168
H         22.13966        39.36530         1.06766
H         22.11491        41.77388         1.28639
H         22.03254        43.82822         1.28546
H         22.16982        46.07889         2.19957
H         26.41198        23.16605         0.58403
H         24.80938        24.38568         1.99773
H         25.66430        49.20611         3.39192
H         23.52126        48.15135         2.84182
H         27.36086        22.28992        -1.03474
H         27.61888        49.91855         4.08538
H         29.12613        21.18346        -2.30152
H         29.69562        51.18993         4.00783
H         33.03434        19.12612        -1.66700
H         30.91229        20.21817        -2.12462
H         33.11966        53.76061         2.31474
H         31.11534        52.45794         2.74876
H         34.74020        18.29066        -2.05912
H         34.82713        54.75749         2.39852
H         36.91331        17.20100        -2.08539
H         36.87188        56.02512         2.02910
H         40.40261        15.02819        -0.29374
H         38.68722        16.21412        -1.58350
H         40.53855        58.24207         1.58482
H         38.42407        57.02342         1.50146
H         42.54640        15.12550         0.98751
H         42.97589        58.30496         1.12427
H         44.34400        16.37538         2.09429
H         44.91222        57.20666         0.12331
H         48.01932        18.58578         2.82092
H         45.96080        17.36040         2.66929
H         48.63452        55.15475        -0.66932
H         46.58844        56.28471         0.00801
H         49.66808        19.52821         2.86577
H         50.31643        54.22687        -0.74590
H         51.76849        20.69853         2.54576
H         52.36732        52.98495        -0.88691
H         55.40320        22.63585         1.31036
H         53.31525        21.51062         1.79402
H         56.08484        50.86200        -1.05824
H         54.00450        52.08596        -1.19979
H         56.94264        23.51979         0.62869
H         57.72265        49.90847        -1.02468
H         59.00844        24.67164        -0.02645
H         60.26010        26.73455        -0.45735
H         60.40114        29.18613        -0.51120
H         60.36555        31.10874        -0.75420
H         60.56570        33.52582        -0.56852
H         60.84231        35.42728         0.32330
H         60.90388        37.85764         0.04277
H         60.94651        39.74858        -0.08409
H         60.99672        42.16119        -0.30985
H         61.02769        44.06952        -0.37039
H         61.03833        46.51530        -0.58630
H         59.82365        48.65925        -0.82323
