         651
 CSIRO Nanostructure Databank - Neutral Graphene Oxide Data Set
C          6.01691        31.55626         0.63300
C          5.96787        32.90379         0.63351
C          8.33987        27.29051        -0.64319
C          8.23641        28.76562        -0.84407
C          7.11581        29.45783        -0.10519
C          8.28728        31.59179        -0.40948
C          7.10549        30.81642        -0.00800
C          8.25896        32.96484        -0.32521
C          6.95806        33.71702        -0.16992
C          8.27825        35.87825         0.17733
C          7.10715        35.15387         0.27246
C          8.34305        37.28928         0.34358
C         10.75777        22.97250        -0.59010
C         10.39292        24.28446        -0.21817
C          9.46022        25.16780        -0.73800
C         10.80773        27.36519        -0.45357
C          9.53195        26.61221        -0.53736
C         10.80634        28.76095        -0.66985
C          9.55175        29.48189        -0.67506
C         10.75155        31.58956        -1.01386
C          9.52405        30.85799        -0.65566
C         10.70472        33.08555        -0.98550
C          9.52626        33.71725        -0.34295
C         10.74919        35.96003        -0.53556
C          9.56977        35.18355        -0.06349
C         10.69998        37.34667        -0.46896
C          9.52636        38.01523         0.06671
C         10.79587        40.14663         0.19763
C          9.58451        39.39887         0.32442
C         10.86008        41.47585         0.67050
C         13.33178        18.82299        -0.54802
C         13.27740        20.22361        -0.34219
C         12.11502        20.97611        -0.47935
C         13.24182        23.15915        -0.07886
C         12.03293        22.40120        -0.30223
C         13.34734        24.58206        -0.11884
C         12.20640        25.39216         0.11124
C         13.32236        27.41530        -0.57587
C         12.08866        26.72680        -0.30779
C         13.29583        28.79578        -0.80453
C         12.05335        29.48956        -0.79441
C         13.24694        31.68068        -0.96744
C         12.04950        30.90491        -0.97324
C         13.18351        33.10544        -0.97075
C         11.96809        33.83580        -0.95386
C         13.12668        35.94779        -1.49653
C         11.92281        35.24260        -0.92538
C         13.09137        37.48535        -1.37952
C         11.77011        38.21726        -1.09275
C         13.19231        40.25210        -0.37254
C         11.95914        39.53276        -0.35284
C         13.22223        41.63947        -0.01666
C         12.03155        42.26092         0.52273
C         13.16927        44.46811         0.61760
C         12.07602        43.58218         0.99436
C         13.27398        45.82505         1.28106
C         15.84068        14.61406        -0.21324
C         15.77608        15.96817        -0.55409
C         14.56804        16.69573        -0.51342
C         15.80935        18.83183        -0.36690
C         14.54325        18.10792        -0.49860
C         15.80112        20.21851        -0.09993
C         14.51518        20.90305         0.08568
C         15.80462        23.10572         0.02239
C         14.50590        22.42856         0.13905
C         15.87137        24.53579        -0.47683
C         14.57623        25.29201        -0.34309
C         15.82372        27.42563        -0.57788
C         14.57300        26.68146        -0.51759
C         15.82421        28.81353        -0.76666
C         14.55999        29.51313        -1.22360
C         15.72556        31.67770        -0.76449
C         14.53545        30.99532        -0.91265
C         15.69858        33.13814        -0.51657
C         14.39606        33.89094        -0.68847
C         15.61973        36.05260        -1.04145
C         14.40386        35.33697        -0.95428
C         15.64186        37.43490        -1.16874
C         14.38518        38.20900        -1.16980
C         15.66455        40.28741        -0.61771
C         14.41611        39.61266        -0.71328
C         15.66576        41.68531        -0.29288
C         14.44905        42.35531        -0.09240
C         15.68917        44.58989         0.05302
C         14.41986        43.83230         0.03072
C         15.73831        45.91665         0.44517
C         14.54402        46.58211         0.94598
C         15.77394        48.69469         1.04066
C         14.56190        47.93032         1.15654
C         15.76643        50.05705         1.28053
C         18.20493        10.46337         0.85991
C         18.25984        11.76426         0.34040
C         17.06068        12.55659         0.24707
C         18.21216        14.38407        -1.04557
C         17.04909        13.85810        -0.21667
C         18.30979        15.93587        -0.99963
C         17.03203        16.71268        -0.84839
C         18.25819        18.85838        -0.36289
C         17.04138        18.15729        -0.49497
C         18.23712        20.22028         0.02157
C         17.00493        20.92962         0.11219
C         18.17516        23.15295         0.60755
C         16.96432        22.38767         0.20665
C         18.20815        24.66033         0.58917
C         17.05040        25.35355        -0.00468
C         18.27356        27.48920        -0.14327
C         17.06126        26.74009        -0.23989
C         18.28349        28.87922        -0.44625
C         17.03553        29.55842        -0.67468
C         18.23656        31.70038        -0.67661
C         17.02163        30.99301        -0.73575
C         18.25643        33.18353        -0.66484
C         16.96262        33.92078        -0.64462
C         18.16877        36.04247        -1.20243
C         16.89055        35.26066        -1.39610
C         18.14552        37.41037        -1.22665
C         16.89125        38.20368        -1.50997
C         18.11030        40.36068        -0.93389
C         16.89618        39.61361        -0.92356
C         18.15121        41.72813        -0.67832
C         16.96579        42.45470        -0.10987
C         18.12504        44.71717        -0.58756
C         16.83877        43.90785        -0.64263
C         18.16411        46.03069        -0.19217
C         16.97126        46.68101         0.32362
C         18.24340        48.78986         0.79304
C         17.00651        48.03430         0.69160
C         18.23817        50.09653         1.33934
C         16.96573        50.81544         1.44645
C         17.77690        53.08200         2.09851
C         16.78642        52.21013         1.55292
C         18.09886        54.38433         1.81568
C         20.54986         6.32433         2.27142
C         20.55001         7.68096         1.84531
C         19.35703         8.38514         1.56124
C         20.65056        10.40041         0.97167
C         19.39183         9.72714         1.11440
C         20.71599        11.71202         0.40008
C         19.51846        12.34218        -0.00859
C         20.73366        14.45524        -0.22163
C         19.58006        13.61960        -0.82798
C         20.74752        15.93954        -0.54087
C         19.58395        16.63543        -0.67715
C         20.81141        18.86002        -0.21785
C         19.55011        18.14061        -0.60276
C         20.77690        20.25266         0.28016
C         19.47466        20.89921         0.48418
C         20.74251        23.12591         0.80393
C         19.45556        22.40993         0.76679
C         20.84736        24.63658         0.83856
C         19.52629        25.39906         0.74975
C         20.83533        27.54409         0.10758
C         19.51428        26.86016         0.36912
C         20.80133        28.81805        -0.73199
C         19.51293        29.60096        -0.56640
C         20.72960        31.74728        -0.87726
C         19.49641        31.00597        -0.71518
C         20.71823        33.15917        -1.17626
C         19.46310        33.90689        -1.13719
C         20.57859        36.04166        -1.85541
C         19.41157        35.27608        -1.28310
C         20.67351        37.44719        -1.25761
C         19.39453        38.18764        -1.08053
C         20.64021        40.36090        -0.98492
C         19.36159        39.67025        -1.44609
C         20.67366        41.84273        -0.86005
C         19.35591        42.52342        -1.04985
C         20.64551        44.76387        -1.12140
C         19.33419        44.02277        -1.08220
C         20.65035        46.25791        -0.86602
C         19.32233        46.96734        -0.56634
C         20.70614        48.80056         0.49995
C         19.46810        48.16873         0.35435
C         20.75820        50.11455         1.09639
C         19.52411        50.73830         1.56565
C         20.83100        52.77986         2.29279
C         19.63448        51.92591         2.27469
C         20.70423        54.29254         2.31946
C         19.36450        55.04578         2.21647
C         20.66089        57.22188         2.10653
C         19.46314        56.48493         1.94107
C         20.62799        58.58865         2.41857
C         22.91807         3.69721         3.52660
C         21.73206         4.31645         3.14948
C         22.99844         6.31355         2.55481
C         21.74722         5.64863         2.64860
C         23.10176         7.66809         1.91785
C         21.79348         8.38487         1.74673
C         23.10813        10.45834         1.43402
C         21.84298         9.72413         1.36225
C         23.14450        11.81675         0.90982
C         22.00968        12.37117         0.32847
C         23.30456        14.51261         0.03527
C         22.10730        13.69912        -0.39151
C         23.31802        15.92716        -0.45257
C         22.00776        16.61261        -0.09255
C         23.30654        18.79033         0.38963
C         22.00657        18.06358         0.19657
C         23.29514        20.28583         0.59221
C         21.92437        20.92013         0.64245
C         23.60382        23.37428         0.56942
C         21.80083        22.28492         1.07858
C         23.36692        24.67423         0.19110
C         22.11146        25.38007         0.43041
C         23.34225        27.48010        -0.17292
C         22.07019        26.71366         0.05713
C         23.32682        28.96306        -0.30266
C         22.03770        29.66751        -0.54803
C         23.24170        31.81552        -0.69750
C         21.97830        31.03361        -0.74951
C         23.19897        33.25115        -1.10646
C         21.90369        33.85137        -1.44821
C         23.20171        36.03072        -1.71429
C         21.90417        35.27641        -1.83087
C         23.18489        37.44947        -1.26525
C         21.93446        38.22242        -1.48402
C         23.18268        40.41087        -0.83506
C         21.94227        39.69146        -1.28264
C         23.21266        41.88936        -0.91495
C         21.95116        42.61100        -0.94214
C         23.15233        44.74626        -0.72796
C         21.90849        43.98999        -0.97298
C         23.18436        46.22347        -1.09289
C         21.93964        46.92616        -0.54614
C         23.21182        48.87095         0.30880
C         21.96206        48.17193         0.06642
C         23.21984        50.16160         0.83426
C         21.98245        50.78133         1.21430
C         23.24766        52.98390         1.45567
C         22.07205        52.14061         1.77737
C         23.19626        54.33495         1.62988
C         21.86678        55.04688         1.67741
C         23.13209        57.14958         2.21442
C         21.93491        56.50688         2.02205
C         23.19759        58.61273         2.26028
C         21.83111        59.39806         2.40632
C         23.14007        61.29992         3.28291
C         21.92171        60.70692         3.04448
C         24.14578         4.36900         3.43842
C         25.44934         6.44171         2.86883
C         24.19728         5.69258         2.95663
C         25.45751         7.79457         2.67979
C         24.12777         8.52783         2.64973
C         25.39642        10.73779         2.43508
C         24.20805         9.90350         2.03763
C         25.54300        11.97936         1.58495
C         24.40824        12.53297         0.97078
C         25.73784        14.57524         0.43673
C         24.46498        13.88685         0.46475
C         25.77846        15.97808         0.07592
C         24.56020        16.68749        -0.05809
C         25.76614        18.82335         0.01883
C         24.55646        18.08687         0.03904
C         25.70097        20.28059        -0.04907
C         24.54839        21.00242         0.18891
C         25.81641        23.16914        -0.32030
C         24.49690        22.46583        -0.23221
C         25.79302        24.57397        -0.60340
C         24.65683        25.41028        -0.09803
C         25.73163        27.43648        -1.06564
C         24.58886        26.80383        -0.61843
C         25.81142        28.87931        -1.21728
C         24.63287        29.62751        -0.67495
C         25.66047        31.71489        -1.61492
C         24.56188        31.10288        -0.82747
C         25.68046        33.21637        -1.76603
C         24.46303        33.94884        -1.40285
C         25.70153        36.03246        -1.46061
C         24.48021        35.32977        -1.44804
C         25.70940        37.48585        -1.52189
C         24.47145        38.16704        -1.04485
C         25.76211        40.38274        -0.97279
C         24.48390        39.65545        -0.82708
C         25.72441        41.80422        -0.87311
C         24.45301        42.52026        -0.85418
C         25.72515        44.72814        -0.79319
C         24.45536        43.98259        -0.67974
C         25.74457        46.07486        -0.59819
C         24.50420        46.89027        -0.68819
C         25.77286        48.79113         0.48871
C         24.50532        48.25082        -0.06696
C         25.74585        50.12666         1.18973
C         24.46337        50.90222         1.00503
C         25.74413        53.01257         1.33248
C         24.48924        52.26227         1.23406
C         25.71927        54.40095         1.54825
C         24.43101        55.18150         1.44159
C         25.68481        57.18356         2.30044
C         24.41443        56.35995         2.41625
C         25.64473        58.56022         2.61980
C         24.43350        59.28226         2.71775
C         24.37540        60.62991         3.09613
C         26.67218         8.58654         2.66772
C         27.93850        10.73157         2.80319
C         26.67495         9.93996         2.55658
C         28.00013        12.06232         2.08092
C         26.80309        12.64334         1.52402
C         28.21923        14.52298         0.66493
C         26.89240        13.91226         0.87375
C         28.28278        15.97486         0.17039
C         26.99961        16.70103         0.04215
C         28.27217        18.78469        -0.35060
C         26.98705        18.10262        -0.08591
C         28.27359        20.26878        -0.48808
C         26.94879        20.98772        -0.45213
C         28.24811        23.12210        -0.39111
C         27.00797        22.45033        -0.33386
C         28.20771        24.62936        -0.35361
C         26.96088        25.23337        -0.91690
C         28.25575        27.36347        -1.40304
C         26.93524        26.61211        -1.53127
C         28.26244        28.76811        -2.00706
C         26.96785        29.55127        -1.64076
C         27.93142        31.80982        -2.34663
C         26.93256        30.99950        -1.78766
C         28.15830        33.20902        -2.02643
C         26.98149        33.89488        -1.74602
C         28.28476        36.03459        -1.37282
C         26.95907        35.29850        -1.33364
C         28.27229        37.50407        -1.44101
C         27.02231        38.25540        -1.48134
C         28.22064        40.35481        -0.88105
C         26.97972        39.68688        -1.09888
C         28.20359        41.79772        -0.76091
C         26.97028        42.49515        -0.85748
C         28.30383        44.69771        -0.86917
C         26.98042        43.96095        -0.98680
C         28.29006        46.10661        -0.43881
C         26.98171        46.66998         0.03434
C         28.25600        48.79021         0.53108
C         26.97234        48.15117         0.29413
C         28.28100        50.19024         1.10110
C         26.98323        50.92194         0.74226
C         28.20756        53.07095         1.22150
C         26.98229        52.35414         1.19548
C         28.16738        54.45340         1.51908
C         26.93703        55.12262         1.69803
C         26.87936        56.52975         2.01076
C         29.21172        12.72917         2.04875
C         30.55830        14.73829         1.48239
C         29.38309        14.00524         1.41196
C         30.65704        16.10021         1.00356
C         29.51508        16.71816         0.45802
C         30.76006        18.92293         0.30938
C         29.57750        18.10339         0.00543
C         30.72763        20.33418         0.17804
C         29.50695        21.02304        -0.20666
C         30.79262        23.15189        -0.28622
C         29.46722        22.42376        -0.27787
C         30.69876        24.68664        -0.11069
C         29.48773        25.22284        -0.91698
C         30.73278        27.37886        -1.24876
C         29.40506        26.73001        -1.05091
C         30.77018        28.87840        -1.03162
C         29.58544        29.53131        -1.72259
C         30.93424        31.67492        -2.15355
C         29.79261        30.73695        -2.29682
C         30.80709        33.15950        -1.93526
C         29.50367        33.87541        -1.93003
C         30.74327        36.06863        -1.64274
C         29.50561        35.26098        -1.70082
C         30.68511        37.46136        -1.12612
C         29.47999        38.19038        -1.15703
C         30.64160        40.23288        -0.33525
C         29.42093        39.59900        -0.83615
C         30.64388        41.74906        -0.19283
C         29.43818        42.51453        -0.56972
C         30.70644        44.62428        -0.22567
C         29.50958        43.91076        -0.57226
C         30.72709        46.02207        -0.13636
C         29.47242        46.74730        -0.13335
C         30.71749        48.88236         0.28235
C         29.45272        48.15042         0.26696
C         30.69527        50.29609         0.43972
C         29.50691        51.00022         0.73325
C         29.44090        52.38432         0.90841
C         31.85530        16.86585         1.12117
C         33.11341        19.02216         0.96615
C         31.92196        18.25496         0.80110
C         33.10226        20.41793         0.81098
C         31.89257        21.08071         0.50571
C         33.04389        23.42685         0.90325
C         31.73082        22.56863         0.76965
C         33.16440        24.62185        -0.06697
C         32.03158        25.24339        -0.54440
C         33.31506        27.32018        -1.18787
C         32.00715        26.59922        -1.12633
C         33.28380        28.80297        -1.25395
C         32.11904        29.50110        -1.39924
C         33.33887        31.76067        -1.36167
C         32.18502        30.95376        -1.74787
C         33.28821        33.13718        -1.40263
C         32.01352        33.82780        -1.63724
C         33.24799        36.00250        -0.97415
C         32.06475        35.30627        -1.57232
C         33.17067        37.32886        -0.62731
C         31.85964        38.02762        -0.38076
C         33.12547        40.24982        -0.26809
C         31.93009        39.54010        -0.42587
C         33.13682        41.70897        -0.15933
C         31.95297        42.42261        -0.16865
C         33.29286        44.64520         0.06785
C         31.92476        43.86572         0.08003
C         33.20247        46.08665        -0.15174
C         31.97941        46.75717        -0.04289
C         31.91498        48.18491         0.06008
C         34.30870        21.23416         0.95449
C         35.57509        23.37820         1.14612
C         34.30439        22.58866         0.92211
C         35.60475        24.71722         0.42997
C         34.47384        25.24392        -0.18082
C         35.87488        27.32918        -0.76282
C         34.57760        26.56283        -0.86926
C         35.87400        28.80993        -1.00554
C         34.56085        29.53243        -1.04094
C         35.88399        31.71394        -1.38911
C         34.58216        31.02434        -1.05435
C         35.79019        33.19344        -1.03908
C         34.54056        33.87048        -1.11957
C         35.69387        35.94205        -0.49400
C         34.50521        35.26775        -0.86520
C         35.65888        37.34773        -0.05660
C         34.34514        38.07107        -0.11604
C         35.60082        40.24268        -0.11411
C         34.36580        39.54447        -0.18509
C         35.61009        41.65407        -0.16545
C         34.41338        42.41967        -0.15424
C         34.45957        43.82209        -0.20683
C         36.83689        25.44931         0.50477
C         38.15251        27.53787         0.22443
C         36.99043        26.73693         0.00529
C         38.21292        28.90423        -0.06570
C         37.04434        29.61551        -0.57151
C         38.32700        31.69924        -0.67721
C         37.05667        30.97097        -0.77345
C         38.29183        33.21034        -0.72403
C         36.97773        33.89774        -0.75709
C         38.16163        36.01994        -0.16357
C         36.93845        35.28080        -0.47180
C         38.13638        37.40446        -0.04508
C         36.90972        38.13733        -0.07154
C         36.84725        39.51757        -0.05255
C         39.40445        29.66348         0.19833
C         40.66254        31.80400         0.18221
C         39.49144        31.01357        -0.08595
C         40.64973        33.17403         0.12147
C         39.46395        33.93119        -0.18352
C         39.38748        35.29392         0.01380
O         14.93919        33.53402         0.65841
O         22.57414        59.26933         1.14162
O         22.94353        22.83339         1.65522
O         24.68593        48.08096        -1.54473
O         20.42100        18.74852        -1.62935
O         22.69486        35.66410        -3.03345
O         20.60208        40.96245         0.33040
O         31.89732        31.25276        -3.18645
O         14.41720        21.59965         1.36339
O         22.00933        39.12264        -2.63318
O         27.70607        44.42946        -2.18854
O         10.48160        32.40421        -2.25249
O          9.88764        34.21816         1.00783
O         25.05686        30.54254         0.41455
O         23.51388        28.34737         1.03242
O         31.61844        35.93052        -2.82729
O         34.50427        30.33115         0.23087
O         28.48035        14.84092        -0.73734
O         23.74106        44.42028         0.55935
O         27.55243        20.59957        -1.73617
O         17.85306        23.93416         1.81739
O         38.60954        32.43801        -1.93944
O         20.06770        54.78561         3.50713
O         20.17923        25.17917         2.02279
O         28.84238        31.20191        -3.21093
O         21.51799        54.94738         0.14185
O         19.99663        13.21377        -2.19686
O         17.64072        16.51357        -2.18363
O         31.33750        26.81645        -2.45514
O         32.58637        44.24419         1.30466
O         26.25845        38.03644        -2.76133
O         23.45773        19.38363         1.73342
O         20.64957        45.71839        -2.23842
O         23.79659        37.49467         0.06118
O         20.16808        37.71921         0.08368
O         27.68512        35.57527        -0.07739
O         21.82255        52.23941         3.24720
O         16.74888        35.01876        -2.76253
O         21.81557        17.08291         1.29097
O         18.58981        52.40966         3.04398
O         34.85806        37.54177         1.17389
O         34.09647        26.64151        -2.24295
O         19.16957        43.23415        -2.31762
O         25.30581        32.32321        -2.90392
O         20.18511        27.68732         1.39030
O         11.16860        24.83046         0.83566
O         17.73784        33.85219         0.57522
O         13.74855        38.08745        -2.54033
O         29.07598        18.18486        -1.40420
O         23.24192        32.82305         0.35317
O         30.43331        40.89698         0.97648
O         36.24130        27.89916        -2.07123
O         23.77552        39.96635         0.42273
O         13.41210        44.48303        -0.83476
O         19.33078        21.42593         1.84708
O         16.88182        38.36644        -2.98075
H         16.89605        37.45741        -3.36346
O         26.71347        26.36843        -2.95358
H         27.17913        27.07863        -3.46144
O         22.44505        13.41358        -1.78435
H         21.69868        12.90422        -2.19185
O         30.64935        29.03184         0.41088
H         30.62764        29.98558         0.63348
O         24.38835        55.76135         0.10703
H         24.32960        55.02927        -0.54186
O         16.09852        24.36739        -1.93947
H         15.98325        25.24914        -2.35666
O         20.46600        14.44854         1.21091
H         20.97240        15.18163         1.62907
O         26.90272        50.97092        -0.70737
H         27.68156        51.46682        -1.03777
O         25.74818        49.86061         2.61513
H         26.68170        49.75783         2.92067
O         19.33937        39.74337        -2.88560
H         18.48847        39.33909        -3.19484
O         36.73605        22.61662         0.80533
H         36.74310        22.48313        -0.16465
O         29.10682         9.95572         2.52644
H         29.15592         9.80653         1.56014
O         23.14335        46.26168        -2.53483
H         23.43415        47.16278        -2.80363
O         30.62664        25.07342         1.28094
H         29.71474        24.89071         1.62083
O         16.46430        43.77048        -2.03417
H         16.44074        44.66002        -2.44361
O         17.77676        14.04111        -2.38832
H         17.44748        14.87965        -2.80199
O         36.04230        31.62827        -2.82881
H         36.95404        31.94671        -3.03154
O         33.00637        24.07572         2.20808
H         32.21794        24.67983         2.17677
O         31.03236        22.58604         2.03779
H         31.70670        22.76800         2.73358
O         20.43181        55.81334        -0.20574
H         20.88467        56.65431        -0.46656
O         20.83445        28.33692        -2.12601
H         20.70072        29.10881        -2.71657
O         11.22243        38.61412        -2.38652
H         11.99473        38.82081        -2.96415
O         14.58914        29.41720        -2.69583
H         13.82490        29.92814        -3.03955
O         23.69749         8.71281         4.02319
H         24.25845         9.42894         4.40347
O         12.12000        46.60495         0.94215
H         12.05001        46.61820        -0.03538
O         24.38401        55.79885         3.75074
H         24.49899        56.52360         4.39935
O         25.16079        25.66368         1.30429
H         24.59864        26.37192         1.69775
O         28.36801        50.04953         2.55855
H         29.25650        49.69159         2.76918
O         28.20757        28.56004        -3.44812
H         28.30401        29.44618        -3.87250
O         23.64411         7.46981         0.57190
H         23.01015         6.91456         0.07162
O         23.90222        22.45211        -1.57890
H         24.58066        22.11704        -2.20473
O         17.19028        42.59564         1.32996
H         17.49110        41.73067         1.68174
O         19.33410        11.96256        -2.51302
H         18.42236        12.28563        -2.74858
O         29.61170        24.72919        -2.27632
H         30.21013        25.35939        -2.75569
O         13.11929        35.61729        -2.91410
H         13.74755        36.23548        -3.35426
O         23.34520        15.92977        -1.91690
H         23.13555        15.00917        -2.22275
O         20.22475        36.25494        -3.24628
H         21.06459        36.31803        -3.75876
O         25.10875        11.21393         3.81089
H         24.33622        11.81713         3.75403
O          6.37601        33.81748        -1.52363
H          6.15820        32.90754        -1.81839
O         31.59015        37.72012         1.04554
H         32.38729        37.97089         1.56281
O          7.90653        28.90709        -2.28350
H          8.03609        29.85137        -2.51958
O         28.08266        25.02863         1.06902
H         27.12241        25.12957         1.29341
O         26.90666        46.09895         1.41446
H         27.56236        46.57294         1.97065
O         31.40994        22.87973        -1.56184
H         30.81445        23.26067        -2.25265
O         18.88154        47.55948        -1.82530
H         19.24016        46.98210        -2.54168
H          5.23691        30.97108         1.14394
H          5.13343        33.42920         1.12192
H          7.41113        26.71101        -0.75883
H          6.25340        28.86875         0.24265
H          6.16991        35.69661         0.47463
H          7.44013        37.83856         0.65024
H         10.03360        22.35543        -1.14285
H          8.65316        24.79155        -1.38405
H          8.69773        39.90234         0.73723
H          9.96382        41.93176         1.11581
H         12.39690        18.27631        -0.74247
H         11.18784        20.45215        -0.75781
H         11.24905        43.98091         1.59968
H         13.24252        45.67342         2.39502
H         14.92299        14.12006         0.14238
H         13.61955        16.14568        -0.42155
H         13.64496        48.43933         1.48800
H         14.80424        50.56541         1.44208
H         17.22815        10.00934         1.08215
H         16.13306        12.13048         0.66017
H         15.81034        52.62284         1.25490
H         17.49116        54.93607         1.08450
H         19.59039         5.79139         2.35225
H         18.38686         7.87993         1.67735
H         18.52428        57.04020         1.78674
H         19.68095        59.04379         2.74393
H         22.89387         2.66668         3.90818
H         20.77481         3.78302         3.23750
H         23.16197        62.31085         3.71488
H         20.99305        61.19344         3.37561
H         25.07062         3.86552         3.75425
H         26.39577         5.89318         2.99616
H         26.59343        59.11263         2.70906
H         25.30699        61.14644         3.36663
H         27.63488         8.06454         2.79473
H         27.96306        10.95308         3.90921
H         29.10707        55.02063         1.59240
H         27.82062        57.10099         2.02950
H         30.08344        12.26078         2.53028
H         31.42785        14.30690         2.00045
H         31.63343        50.85721         0.31069
H         30.35737        52.98457         0.80008
H         32.75928        16.37258         1.50867
H         34.04338        18.51480         1.26297
H         34.12805        46.66214        -0.30096
H         32.86002        48.74917         0.05119
H         35.27338        20.71238         1.05968
H         35.64550        23.58705         2.25078
H         36.57612        42.18023        -0.15219
H         35.41543        44.31708        -0.43631
H         37.66791        24.98439         1.05598
H         39.02945        27.06119         0.68906
H         39.08014        37.95231         0.09629
H         37.78180        40.09815        -0.02702
H         40.27362        29.14398         0.62978
H         41.57854        31.28388         0.49874
H         41.55661        33.73406         0.39398
H         40.27551        35.84400         0.36025
