         320
 CSIRO Nanostructure Databank - Neutral Graphene Oxide Data Set
C         30.31513        31.75241         0.34322
C         30.21009        32.94227         0.00040
C         30.43155        36.01911         0.78010
C         30.39996        37.23822         1.01068
C         30.42005        40.48035         0.53111
C         30.42414        41.70619         0.64849
C         32.66853        28.95038         0.42593
C         31.46494        29.45164         0.65560
C         32.65593        31.49664        -0.23485
C         31.33414        30.77586         0.32816
C         32.67209        33.01964        -0.28025
C         31.35047        33.84427        -0.39581
C         32.79204        35.84061         0.31805
C         31.49350        35.07303         0.47670
C         32.80734        37.35063         0.65627
C         31.44966        38.14165         0.33123
C         32.83314        40.30939         0.46601
C         31.55112        39.54290         0.92891
C         32.84730        41.80517         0.62344
C         31.53752        42.59579         1.10104
C         32.85931        44.52305         0.48338
C         31.76263        43.95393         0.48528
C         35.34012        27.23931        -0.10899
C         35.13073        28.70844        -0.35049
C         33.92285        29.35963         0.24479
C         35.16658        31.61160         0.06135
C         33.88156        30.93285         0.48906
C         35.15504        32.94071        -0.28613
C         33.87424        33.67294        -0.37131
C         35.21865        35.84296        -0.35840
C         33.87519        35.19706        -0.58117
C         35.30186        37.27356         0.15099
C         33.97679        38.06610        -0.05500
C         35.33084        40.20138         0.32656
C         34.13073        39.54906         0.35967
C         35.44671        41.69688         0.48075
C         34.19182        42.50278         0.74163
C         35.42908        44.66736        -0.07291
C         34.23082        44.02669         0.52646
C         35.51906        45.97003        -0.73958
C         37.72976        27.27934        -0.69130
C         36.42910        26.65614        -0.15805
C         37.72425        28.68197        -0.07027
C         36.43867        29.34374         0.16357
C         37.71992        31.57169         0.38437
C         36.40194        30.85636         0.36795
C         37.76757        32.91809        -0.27749
C         36.45887        33.61776        -0.60401
C         37.69064        35.78559        -0.20257
C         36.45763        35.14111        -0.88815
C         37.78520        37.26580        -0.69981
C         36.46098        38.09910        -0.49907
C         37.77654        40.21945        -0.38558
C         36.66137        39.44289         0.27896
C         37.79270        41.63111        -0.44915
C         36.65248        42.38683        -0.07972
C         37.77412        44.47453        -1.24354
C         36.58860        43.80248        -0.55633
C         37.85295        46.01573        -1.60634
C         36.45225        46.47502        -1.35296
C         40.28256        24.60711        -1.19364
C         39.20813        25.21845        -1.09635
C         40.27265        27.28800        -0.55217
C         38.95694        26.47783        -0.28638
C         40.28076        28.62634         0.20008
C         38.95249        29.24281         0.64924
C         40.28402        31.45594         0.07968
C         38.99129        30.79752         0.54833
C         40.22683        32.97808         0.16161
C         39.06782        33.63873        -0.10327
C         40.18939        35.85469         0.29797
C         39.06624        35.10873        -0.48127
C         40.22040        37.34980         0.00048
C         39.03279        37.98910        -0.20115
C         40.26566        40.12042        -0.82649
C         38.97556        39.41027        -0.63753
C         40.13099        41.54978        -1.10529
C         39.02055        42.30988        -0.91279
C         40.42641        44.60222        -0.97493
C         39.11735        43.77655        -1.20090
C         40.35856        46.14842        -0.95320
C         38.85534        46.63613        -0.62440
C         40.00879        48.83014        -0.30217
C         39.03717        48.12462        -0.59172
C         42.89533        24.51786        -0.80716
C         41.58812        25.12234        -0.86068
C         42.71825        27.10826         0.27105
C         41.53579        26.43443        -0.37660
C         42.73312        28.59471        -0.10147
C         41.44904        29.30032         0.34096
C         42.77245        31.49043         0.36896
C         41.48079        30.78869         0.82281
C         42.76514        32.93226        -0.10161
C         41.54686        33.69353         0.48102
C         42.66602        35.97623         0.79772
C         41.56384        35.19786         0.04030
C         42.80756        37.41084         0.29000
C         41.56131        38.04785        -0.31669
C         42.82310        40.31854        -0.18320
C         41.44265        39.57776        -0.00738
C         42.79471        41.83380         0.12811
C         41.97727        42.64291        -0.62920
C         42.74750        44.77991         0.14993
C         41.67978        44.01634        -0.40978
C         42.73211        46.16282         0.09383
C         41.37347        46.81939         0.00305
C         42.50583        48.90396         0.61569
C         41.46401        48.54483        -0.37811
C         43.91153        25.20819        -0.49181
C         45.28691        27.27212         0.17554
C         44.11239        26.50971        -0.04606
C         45.27683        28.65203         0.44878
C         43.92461        29.32198         0.55577
C         45.54019        31.71194         1.37321
C         43.82192        30.70942        -0.01909
C         45.39695        33.12127         0.90643
C         44.17807        33.78595         0.22395
C         45.23727        35.97531         1.01666
C         43.97902        35.17863         0.86596
C         45.21135        37.47432         0.94234
C         43.94265        38.12872         0.50526
C         45.20018        40.38497         0.52947
C         43.89004        39.64345         0.70466
C         45.19330        41.85695         0.15201
C         43.95890        42.48944         0.86354
C         45.25986        44.73345         0.42176
C         43.90482        44.08370         0.87657
C         45.20656        46.28642         0.86028
C         44.02191        46.99899         0.20542
C         43.57128        48.30926         0.81007
C         47.72314        27.40644        -0.05381
C         46.64269        26.80555        -0.02523
C         47.76459        28.91528        -0.17857
C         46.59134        29.38373         0.83681
C         47.69155        31.70270         0.22414
C         46.54615        30.91509         0.85274
C         47.86464        33.06588         0.94694
C         46.56125        33.83095         0.91195
C         47.87573        36.08104         0.94332
C         46.58408        35.30734         0.98521
C         47.81913        37.50534         0.49338
C         46.50883        38.21458         0.67619
C         47.63822        40.37211        -0.21692
C         46.39078        39.62373         0.17928
C         47.68797        41.82056         0.17032
C         46.54061        42.51645         0.43592
C         47.87769        44.69546         0.74232
C         46.50388        43.95377         0.98068
C         47.62458        46.09564         0.40698
C         46.56828        46.72702         0.37177
C         50.33843        29.01005        -0.22145
C         49.08166        29.60346         0.07755
C         50.16569        31.72849         0.76403
C         49.01097        30.96485         0.40363
C         50.30477        33.10393         0.41302
C         49.00436        33.89967         0.27540
C         50.38499        36.00345         0.25598
C         49.19623        35.27939         0.92491
C         50.14759        37.34708        -0.43495
C         48.89554        38.10840        -0.08237
C         50.28036        40.11204        -0.03240
C         48.91434        39.57005        -0.55908
C         50.28609        41.58176         0.37522
C         49.03667        42.39678         0.46961
C         50.43494        44.35725         0.01990
C         49.12158        43.91718         0.52160
C         51.42285        29.58586        -0.61808
C         52.60607        31.59903        -0.66066
C         52.57867        30.25880        -0.74942
C         52.63212        32.82897        -0.26478
C         51.54773        33.68599         0.07327
C         52.49983        35.93909        -0.93607
C         51.62713        35.16989        -0.02843
C         52.51365        37.17735        -1.04052
C         51.33631        38.06747        -1.08008
C         52.62758        40.26778        -0.54451
C         51.41723        39.59127        -1.10681
C         52.76160        41.44972        -0.21526
C         51.94873        42.43292         0.48782
C         51.47578        43.70413        -0.11195
O         32.51282        35.01839         1.50324
O         46.67520        39.96253        -1.26620
O         37.21241        32.89391        -1.63707
O         48.78768        44.43879         1.84605
O         38.39748        31.49114         1.67993
O         36.76401        43.80700        -2.04232
O         41.28016        42.05911        -1.70118
O         39.66139        39.45619        -1.98301
O         45.92105        38.15367         2.02720
O         47.25226        35.80384         2.22487
O         35.21765        44.68383         1.35037
O         40.00672        44.12395        -2.29573
O         36.25092        29.94934         1.50603
O         38.04356        37.22750        -2.08266
O         32.64427        41.19769        -0.68232
O         44.55327        35.36011         2.18334
O         49.67372        41.77231         1.67276
O         51.50077        35.95852         1.19945
O         35.02691        42.11684         1.84948
O         50.32728        37.42187        -1.89865
O         43.59820        29.35914         1.97481
H         43.32513        28.44602         2.24466
O         33.73751        31.16120         1.88405
H         34.53389        30.79728         2.33305
O         43.25415        40.11301        -1.53214
H         42.69644        40.66878        -2.12195
O         41.24471        30.86043         2.22187
H         42.05859        30.54061         2.67059
O         35.11803        28.91156        -1.77174
H         34.20890        28.76297        -2.10904
O         47.42741        31.93083        -1.19131
H         47.24999        31.03366        -1.58233
O         48.24279        32.74212         2.29253
H         48.48636        33.58674         2.74566
O         44.39740        47.29059        -1.14494
H         43.70097        47.87766        -1.53887
O         40.72781        46.58631        -2.26435
H         40.19672        46.05896        -2.91200
O         40.86246        46.76833         1.34036
H         41.54023        47.14693         1.94305
O         36.45672        35.30690        -2.30609
H         36.93666        34.53700        -2.69279
O         42.52527        26.98641         1.70711
H         42.25351        26.06633         1.91320
O         48.96259        39.57232        -1.99258
H         48.05032        39.39255        -2.31829
O         44.95407        42.03500        -1.26584
H         45.50220        41.36880        -1.74535
O         38.78509        28.89966         2.04083
H         38.24713        29.62100         2.44803
O         38.88601        26.14623         1.07748
H         37.94584        25.98146         1.31436
O         31.17986        38.20674        -1.03054
H         30.65811        39.01739        -1.21724
O         51.12455        31.11501         1.47089
H         51.86255        31.73058         1.65902
O         40.42903        31.15209        -1.32945
H         41.13531        31.74648        -1.68892
O         44.77569        31.42038         2.43520
H         44.96269        30.50905         2.75100
O         31.15818        34.30619        -1.72262
H         30.95803        33.55062        -2.31029
O         44.70070        34.11898        -1.09203
H         45.37417        33.45379        -1.35407
O         42.25923        36.21849         2.17096
H         43.06030        36.04904         2.73383
O         35.54309        37.22763         1.58333
H         34.67143        37.15081         2.05342
O         45.14473        46.46097         2.24505
H         45.86054        45.93819         2.66830
O         47.33632        29.23925        -1.50905
H         48.00519        28.89275        -2.13695
O         33.60935        38.06220        -1.44377
H         34.37793        38.44112        -1.95177
O         50.59811        39.38564         1.16778
H         50.41523        39.96971         1.93827
O         43.48800        39.71397         2.11100
H         44.24203        39.35560         2.63460
O         41.75652        37.88194        -1.73686
H         40.93499        38.19057        -2.19407
O         41.71652        33.62452         1.90585
H         40.89971        33.97918         2.32321
O         37.14262        39.24699         1.61948
H         36.60256        38.52286         2.02938
O         38.45359        46.13246         0.63397
H         39.02253        46.53643         1.33151
O         43.64909        44.45309         2.24238
H         44.40803        44.12280         2.77926
O         37.36990        35.65974         1.17538
H         38.17233        35.83791         1.72630
O         41.99440        48.77075        -1.64292
H         41.39525        48.35548        -2.30904
O         33.54127        35.42519        -1.97081
H         33.46772        36.41015        -2.09296
O         39.35031        35.09579        -1.89239
H         38.91442        35.92731        -2.28211
O         42.85097        28.63895        -1.53955
H         42.98173        29.57118        -1.81825
O         45.36212        44.68065        -0.99757
H         45.05637        45.53209        -1.39221
O         51.27817        40.08871        -2.41004
H         50.81602        39.42362        -2.96380
O         41.90007        35.29779        -1.35218
H         41.04576        35.32119        -1.86811
O         46.34101        43.88295         2.41248
H         47.23535        43.71130         2.79577
O         42.67028        32.85672        -1.54102
H         42.59080        33.80167        -1.85984
O         31.56835        39.50022         2.33542
H         30.90628        38.83931         2.63416
O         44.63742        31.05432        -1.05953
H         44.21505        31.82548        -1.51971
O         37.61424        27.35132        -2.08975
H         36.80351        27.86607        -2.30995
O         39.86488        35.65794         1.70124
H         40.53809        36.15138         2.23556
O         38.24743        46.13827        -2.95197
H         37.62207        45.61897        -3.50111
O         44.06209        42.08216         2.22960
H         43.22305        42.30484         2.68474
O         36.05756        38.54077        -1.80093
H         36.71830        38.11110        -2.43245
O         46.92631        28.88736         2.14870
H         47.78987        29.27218         2.41046
O         40.97694        39.76431         1.34030
H         41.73489        39.61027         1.95863
O         40.24451        27.63898        -1.94937
H         41.10576        28.07216        -2.16349
O         32.98477        37.44181         2.07794
H         32.57212        36.63088         2.46757
O         48.71425        34.18871        -1.09667
H         48.40573        33.35492        -1.53372
O         52.24901        42.55878         1.81322
H         51.59811        43.14582         2.25052
O         49.56329        35.03079         2.29071
H         49.75914        35.88567         2.72822
O         31.54305        42.68730         2.49056
H         30.75736        43.18172         2.79895
O         32.74544        31.04812        -1.60312
H         32.03677        31.48027        -2.12359
