         477
 CSIRO Nanostructure Databank - Neutral Graphene Oxide Data Set
C         27.97069        27.22991        -0.61013
C         27.96643        28.70037        -0.27291
C         26.72247        29.45270        -0.66097
C         27.92880        31.57323        -0.91909
C         26.72185        30.81405        -0.81325
C         27.95658        33.00555        -0.90290
C         26.76057        33.77562        -0.77272
C         28.00243        35.87940        -0.68783
C         26.78506        35.15577        -0.71900
C         28.02938        37.33505        -0.60585
C         26.81853        38.15276        -0.77022
C         28.24291        40.14290        -1.17653
C         26.88974        39.47831        -1.00116
C         28.26340        41.69317        -1.11650
C         27.05122        42.52252        -1.24469
C         28.25836        44.56791        -0.55394
C         27.08940        43.86895        -1.05561
C         28.29523        46.01621        -0.50313
C         30.46780        27.18354        -0.88390
C         29.10489        26.54242        -0.79575
C         30.40432        28.69285        -0.74450
C         29.22794        29.38085        -0.72975
C         30.46339        31.51698        -1.31295
C         29.13856        30.76453        -1.33431
C         30.46698        33.01381        -1.15676
C         29.19045        33.72945        -0.93870
C         30.49139        35.81347        -0.58052
C         29.22188        35.13142        -0.74949
C         30.44866        37.22110        -0.15538
C         29.21127        37.99024        -0.34020
C         30.56151        40.14442        -0.10685
C         29.19582        39.49701        -0.12268
C         30.53325        41.60624         0.15394
C         29.45752        42.40906        -0.50018
C         30.49851        44.50283         0.51627
C         29.36848        43.83941        -0.16093
C         30.49396        46.02525         0.62107
C         29.37645        46.70726        -0.04973
C         32.60122        24.55033         0.87485
C         31.47222        25.22894         0.42557
C         32.77801        27.24935         0.11688
C         31.56009        26.55400        -0.03273
C         32.95805        28.58190        -0.65169
C         31.67270        29.40365        -0.79141
C         33.00312        31.50056        -1.01772
C         31.69579        30.75634        -0.98752
C         32.91098        32.99785        -0.82698
C         31.74682        33.71183        -0.86453
C         32.96857        35.89791        -0.66178
C         31.72186        35.15700        -0.68509
C         32.98816        37.25749        -0.41084
C         31.76863        37.97375        -0.03272
C         33.01264        40.14970         0.06214
C         31.75973        39.46216        -0.05150
C         33.07326        41.54829         0.65559
C         31.77035        42.32669         0.59267
C         33.00491        44.51898         0.42356
C         31.81112        43.80907         0.52443
C         33.03398        45.97102         0.34639
C         31.84486        46.72535         0.92818
C         32.98722        48.82852         0.17888
C         31.89163        48.20630         0.63468
C         35.13126        23.04914         1.14071
C         35.07861        24.43109         1.23982
C         33.85025        25.19851         0.97738
C         35.12078        27.35935         1.02426
C         33.89081        26.59366         0.69452
C         35.28491        28.72027         0.48846
C         34.04384        29.41519         0.07089
C         35.06358        31.80717         0.46478
C         33.96254        30.92945         0.03116
C         35.39959        33.00835        -0.23728
C         34.23428        33.66766        -0.87238
C         35.52463        35.83212        -0.53517
C         34.25478        35.19180        -0.90084
C         35.54856        37.29186        -0.56789
C         34.22907        38.04294        -0.56072
C         35.46772        40.14169        -0.10573
C         34.23832        39.47186        -0.14947
C         35.48591        41.60528        -0.21608
C         34.19386        42.34970         0.03009
C         35.44457        44.48484         0.07772
C         34.24395        43.80574         0.24224
C         35.45112        45.91452        -0.05680
C         34.19496        46.62779        -0.01287
C         35.51825        48.77495        -0.30595
C         34.15854        48.08946        -0.41487
C         35.70620        50.22090        -0.22873
C         37.59639        22.94436         0.94519
C         36.35060        22.33087         1.01367
C         37.68221        24.36801         1.32140
C         36.35339        25.12094         1.49574
C         37.68319        27.28443         1.24577
C         36.39124        26.60871         1.40554
C         37.68388        28.64851         1.03708
C         36.52245        29.32931         0.53344
C         37.94674        31.44454         0.13535
C         36.83539        30.51700        -0.32743
C         37.93201        32.95288         0.04048
C         36.64814        33.67582        -0.18326
C         37.96540        35.80761        -0.11853
C         36.70100        35.10125        -0.33098
C         37.97277        37.26319        -0.17360
C         36.80772        37.97701        -0.23921
C         37.98077        40.20087        -0.38567
C         36.77375        39.43911         0.12502
C         37.97732        41.66241        -0.12360
C         36.73502        42.35846        -0.08083
C         37.90257        44.49481         0.22691
C         36.70603        43.77056         0.01603
C         37.90903        45.92540         0.23233
C         36.67666        46.58912        -0.17629
C         37.78694        48.68631         1.58154
C         36.64599        47.99766        -0.50831
C         37.60791        50.22655         1.56207
C         36.70937        50.81936         0.46574
C         40.06773        20.21448        -0.00036
C         38.85727        20.89064         0.27759
C         39.99086        23.07478         0.20097
C         38.79379        22.26506         0.49312
C         40.09527        24.47498         0.66479
C         38.93450        25.13866         1.07914
C         40.16514        27.25581         1.04433
C         38.95075        26.56119         1.20144
C         40.18375        28.75673         0.83126
C         38.93639        29.38493         1.43389
C         40.18590        31.62978         1.35386
C         38.91976        30.88312         1.13039
C         40.27970        33.05227         0.94279
C         39.12786        33.72053         0.52583
C         40.32090        35.90349         0.73252
C         39.11468        35.13974         0.30275
C         40.39702        37.38052         0.55178
C         39.32210        37.93647        -0.35201
C         40.52699        40.17977        -0.07038
C         39.28420        39.45365        -0.38526
C         40.46616        41.64836        -0.18710
C         39.17511        42.34175        -0.01685
C         40.40301        44.47438         0.81915
C         39.13608        43.73588         0.45211
C         40.35098        45.97261         1.11797
C         39.04574        46.63860         0.67390
C         40.19717        48.78244         1.05603
C         39.01833        48.04199         0.98579
C         40.10659        50.09659         1.62193
C         38.97663        50.89755         1.64584
C         40.18912        53.06864         1.43492
C         39.09983        52.32059         1.81984
C         42.54188        20.20857        -0.20324
C         41.28377        20.88139        -0.10487
C         42.57973        23.05857         0.04776
C         41.29842        22.35022        -0.12889
C         42.58598        24.46118         0.32805
C         41.35200        25.15216         0.60734
C         42.63819        27.24494         0.99747
C         41.38603        26.55091         0.88540
C         42.65967        28.65177         1.60825
C         41.41005        29.47364         1.37213
C         42.68266        31.56918         1.99257
C         41.41614        30.81987         1.58305
C         42.65855        33.05333         1.63860
C         41.53666        33.72212         1.21394
C         42.83692        35.98525         1.21248
C         41.61351        35.17511         0.89500
C         42.83333        37.47738         1.11491
C         41.69562        38.11061         0.63175
C         42.90673        40.27722         0.63419
C         41.68687        39.53152         0.36414
C         42.93208        41.66589         0.47348
C         41.73378        42.42150         0.09232
C         42.87237        44.55881         0.47293
C         41.68273        43.85121         0.47084
C         42.90307        46.03256         0.81834
C         41.54956        46.69261         0.46553
C         42.65157        48.96594        -0.07329
C         41.61146        48.20250         0.87494
C         42.63532        50.50668         0.06569
C         41.80812        51.23115         0.95139
C         41.97915        53.29750        -0.29183
C         41.35769        52.55727         0.73710
C         43.72016        20.90723        -0.26792
C         45.02159        23.06651        -0.19818
C         43.77335        22.34186        -0.13032
C         45.05301        24.46126         0.09391
C         43.82308        25.15995         0.40679
C         45.13396        27.23739         0.95861
C         43.82717        26.54692         0.78309
C         45.15335        28.72964         1.05868
C         43.85554        29.45739         1.10861
C         45.23015        31.62677         1.34898
C         43.90349        30.93178         1.32956
C         45.27129        33.06052         1.76577
C         43.93578        33.77344         1.89052
C         45.28330        36.02730         2.03862
C         43.97162        35.28507         1.89165
C         45.27006        37.58109         2.03329
C         44.05383        38.21423         1.34621
C         45.27064        40.39965         1.60970
C         44.07248        39.58590         1.13514
C         45.32022        41.79116         0.99154
C         44.14566        42.42491         0.63821
C         45.30800        44.62535         0.34041
C         44.10838        43.86487         0.44604
C         45.24604        46.05555         0.03102
C         44.07314        46.77227         0.17678
C         45.10927        48.78046        -0.95081
C         44.09094        48.31824         0.10105
C         45.10972        49.97488        -1.64669
C         43.19936        51.29552        -0.95843
C         42.91432        52.67223        -1.10448
C         47.39348        23.14053        -0.77442
C         46.22335        22.43043        -0.60301
C         47.46936        24.52227        -0.45886
C         46.30519        25.14405         0.03982
C         47.62670        27.32363         0.23703
C         46.39649        26.52393         0.55516
C         47.55062        28.81637         0.13758
C         46.31808        29.53696         0.56629
C         47.61504        31.75161         0.63403
C         46.35475        30.97615         0.95175
C         47.77427        33.03386         1.47829
C         46.50186        33.87865         1.54960
C         47.76329        36.02048         1.48868
C         46.53413        35.25528         1.72284
C         47.78791        37.40868         1.54375
C         46.58007        38.23479         1.62718
C         47.81938        40.38665         1.35008
C         46.57232        39.60710         1.50513
C         47.82835        41.86617         1.11110
C         46.52811        42.66098         1.22149
C         47.75440        44.62015         0.10054
C         46.52974        43.96993         0.46970
C         47.69772        46.00727        -0.36938
C         46.48232        46.68026        -0.39825
C         47.65716        48.65727        -1.56662
C         46.34462        47.98020        -1.08407
C         47.55463        50.07159        -1.91047
C         46.32066        50.60322        -2.12052
C         49.85972        24.68376        -1.25210
C         48.70362        25.28454        -0.70536
C         49.92311        27.44099        -0.69799
C         48.75732        26.67503        -0.45715
C         49.97706        28.84694        -0.29203
C         48.85261        29.51864         0.10235
C         50.17370        31.64314         0.56555
C         48.88645        30.90017         0.65840
C         50.14055        33.12414         0.69218
C         49.01128        33.79537         1.03682
C         50.30708        35.92584         0.98427
C         48.93941        35.28882         0.81861
C         50.41464        37.37218         1.39817
C         49.09391        38.13271         1.50521
C         50.27723        40.29772         0.64099
C         49.10036        39.61185         1.23950
C         50.23556        41.67510         0.30978
C         48.89633        42.37387         0.15572
C         50.12841        44.51238        -0.53894
C         48.92644        43.87928         0.01066
C         50.17493        45.97963        -0.66607
C         48.94020        46.67214        -0.75350
C         50.17390        48.65272        -1.44074
C         48.94171        48.01357        -1.21100
C         50.99685        25.43126        -1.52950
C         52.25373        27.60815        -1.58735
C         51.06152        26.81591        -1.26610
C         52.35734        28.94546        -1.15167
C         51.33597        29.52377        -0.19688
C         52.47519        31.78033        -0.56178
C         51.16947        31.03829        -0.42502
C         52.40197        33.28932        -0.49492
C         51.51591        33.75348         0.67874
C         52.83557        35.90894         0.87494
C         51.46467        35.25039         0.77954
C         52.77649        37.42495         0.68737
C         51.41635        38.04996         0.44141
C         52.57892        40.17364        -0.14683
C         51.46453        39.56148         0.44792
C         52.44755        41.47328        -0.67439
C         51.35946        42.28074        -0.28043
C         52.67499        44.49523        -0.44185
C         51.40924        43.72929        -0.60815
C         52.67840        45.87349        -0.78918
C         51.41077        46.60716        -0.94999
C         51.37982        47.97744        -1.29302
C         54.41690        27.80829        -2.69039
C         53.29655        27.06141        -2.37571
C         54.52788        29.15114        -2.26183
C         53.47918        29.72976        -1.49759
C         54.75470        31.89929        -1.46793
C         53.55749        31.14720        -1.14037
C         54.87467        33.26240        -1.06629
C         53.76355        33.96143        -0.47653
C         55.14035        35.99315        -0.24984
C         53.90035        35.27129        -0.02698
C         55.23945        37.38602        -0.02718
C         54.00517        38.13801         0.27454
C         55.14662        40.28628         0.28462
C         53.92965        39.53386        -0.35918
C         55.15368        41.75147         0.72077
C         53.91871        42.63529         0.86652
C         55.10627        44.55282        -0.11020
C         53.86837        43.88465         0.02538
C         55.11591        45.87957        -0.58730
C         53.92342        46.54062        -0.85372
C         55.68247        29.93307        -2.59051
C         55.79601        31.24031        -2.18929
C         56.12140        33.95387        -1.17054
C         56.24673        35.26253        -0.78959
C         56.40867        38.19763        -0.23498
C         56.39245        39.56183        -0.10636
C         56.39184        42.55789         0.60156
C         56.34622        43.86014         0.23133
O         44.44192        35.67682         3.20579
O         53.58280        38.13442         1.68448
O         44.00257        50.77389        -1.94895
O         37.01619        48.02594         2.26539
O         45.32694        27.92125         2.26122
O         30.57435        32.36988        -2.50841
O         41.27607        42.19742        -1.29928
O         44.63547        33.25416         3.06346
O         49.81385        30.95001         1.80525
O         37.10630        24.63012         2.64742
O         43.60113        30.36005         0.00129
O         30.76202        41.88827         1.58672
O         39.98392        36.83231         1.84085
O         41.31469        50.62973         2.11123
O         49.27634        39.07812         2.60324
O         30.08373        45.19116         1.75776
O         40.45821        22.93510        -1.18583
O         31.10101        37.44063         1.16311
O         42.61973        35.42892        -0.14592
O         47.44185        26.73559         1.56608
O         50.64039        43.95227        -1.84387
O         33.31637        28.17401        -1.93353
O         39.07812        31.61442         2.38901
O         54.16397        39.49036        -1.73959
O         55.15059        40.65003         1.68822
O         36.38825        30.58915        -1.45895
O         39.67482        43.75555         1.88089
O         48.16468        41.39469         2.42361
O         34.41957        34.38534        -2.11672
O         29.37835        42.17886        -1.95388
O         38.59301        39.85715        -1.64904
O         35.53906        27.24036         2.42464
O         38.46561        32.10500        -1.05553
O         33.42280        30.18956         1.17181
O         46.82899        47.84122        -2.46175
O         34.92985        37.81778        -1.82287
O         46.58148        29.30481        -0.87479
O         53.13121        42.47527         1.78487
O         34.56941        42.01909        -1.32841
O         51.00000        37.69867        -0.90313
H         51.59006        38.15705        -1.54010
O         51.85815        29.29215         1.12920
H         51.23439        29.71432         1.76982
O         46.37526        43.09404         2.61095
H         46.40510        42.27298         3.16165
O         41.30811        46.47705        -0.93176
H         41.94726        47.01274        -1.46312
O         27.98637        28.78831         1.20392
H         27.28402        28.19530         1.54548
O         39.75108        37.51557        -1.67644
H         39.27931        38.08389        -2.32792
O         42.30626        48.74335        -1.45598
H         41.46981        49.20984        -1.66059
O         36.97635        39.48327         1.58943
H         36.11801        39.31150         2.03233
O         40.13934        28.98598        -0.59892
H         40.96463        28.64609        -1.00397
O         28.84094        30.48665        -2.74757
H         29.28381        31.19664        -3.27076
O         30.91246        26.97472        -2.25391
H         31.83861        27.36514        -2.33290
O         48.41901        41.91891        -1.16320
H         49.02384        42.31053        -1.83564
O         32.05150        46.64477         2.36282
H         31.46688        45.91932         2.69483
O         48.60965        35.42356        -0.60999
H         48.12860        34.61507        -0.89284
O         47.46631        32.18535        -0.74649
H         47.22731        31.39152        -1.27994
O         28.58895        39.76447         1.16902
H         29.20923        39.45604         1.86328
O         36.91459        50.54090         2.79195
H         36.45363        49.71020         3.06396
O         44.62952        48.78321         1.35709
H         43.94226        48.59783         2.04725
O         33.88205        48.04973        -1.86595
H         33.76713        48.97488        -2.16965
O         53.30640        35.68233         2.24215
H         53.84872        36.48032         2.47823
O         51.72464        33.71683        -1.72469
H         52.37103        33.66469        -2.46064
O         42.78824        28.48036         3.03575
H         43.69674        28.13244         3.21014
O         35.55559        31.58292         1.68706
H         35.04873        30.82391         2.07778
O         33.65780        31.27754        -2.28237
H         33.02623        31.49478        -2.99986
O         50.95357        37.36053         2.73662
H         51.74670        36.77938         2.77142
O         28.70301        39.76491        -2.48815
H         29.26969        40.49919        -2.82249
O         45.15567        37.99846         3.43474
H         44.62854        37.30472         3.90216
O         40.43576        46.14718         2.54736
H         39.97237        45.37868         2.95620
O         33.42036        41.40131         2.06228
H         32.57297        41.28302         2.54878
O         53.35140        41.92058        -1.57655
H         53.85403        41.10556        -1.90980
O         45.06175        40.65985         3.03681
H         45.10124        39.77259         3.48660
O         42.85843        31.42112         3.41274
H         42.12726        31.87967         3.87432
O         47.97640        32.58396         2.83719
H         48.14826        33.36132         3.40770
O         43.12472        46.04931         2.25611
H         43.96703        45.57652         2.42992
O         39.03408        29.17724         2.85769
H         39.06896        30.06441         3.28964
O         42.16242        48.28462         2.20001
H         41.68573        47.62377         2.75929
O         50.52275        31.18879        -1.72833
H         50.60446        32.14178        -1.98032
O         37.78074        48.55553        -1.03523
H         37.59411        49.49415        -1.25273
O         52.14366        33.23293         1.88145
H         52.65900        33.95580         2.31179
H         26.99961        26.70740        -0.62080
H         25.76039        28.91740        -0.61813
H         25.75178        31.33121        -0.87677
H         25.78760        33.26742        -0.74945
H         25.83007        35.69491        -0.66144
H         25.83496        37.66441        -0.71927
H         25.96672        40.05428        -1.16184
H         26.10060        42.04278        -1.51844
H         26.17642        44.46081        -1.21986
H         27.45404        46.56305        -0.95460
H         29.04789        25.46720        -1.02646
H         29.42473        47.79837        -0.18165
H         32.50837        23.48858         1.14021
H         30.51755        24.68868         0.35493
H         32.99161        49.92760         0.09432
H         31.04871        48.80802         1.01033
H         34.20339        22.47297         1.01906
H         34.98025        50.87484        -0.74716
H         36.27129        21.25294         0.81408
H         36.73732        51.92189         0.45018
H         40.05503        19.11623        -0.05631
H         37.95638        20.27875         0.42405
H         40.09407        54.16521         1.48769
H         38.20404        52.85880         2.16559
H         42.55158        19.10968        -0.24664
H         41.68738        54.34066        -0.47659
H         44.65783        20.34480        -0.36697
H         43.39268        53.22064        -1.92616
H         48.27971        22.60903        -1.14437
H         46.22205        21.35857        -0.83980
H         48.45685        50.67914        -2.06347
H         46.22283        51.63444        -2.48850
H         49.88141        23.60661        -1.46350
H         50.19256        49.69751        -1.78011
H         51.86960        24.90984        -1.94462
H         52.31022        48.51863        -1.50947
H         55.22618        27.36593        -3.28878
H         53.22720        26.02956        -2.74480
H         56.07274        46.41053        -0.69335
H         53.96505        47.60089        -1.13702
H         56.48928        29.46428        -3.17227
H         56.70075        31.79636        -2.46807
H         57.00361        33.43515        -1.56711
H         57.21421        35.76675        -0.91452
H         57.35949        37.70960        -0.49664
H         57.32833        40.12284        -0.25356
H         57.35764        42.07777         0.81835
H         57.28226        44.43130         0.14025
