         490
 CSIRO Nanostructure Databank - Neutral Graphene Oxide Data Set
C         37.86013        49.90003         2.79943
C         36.64776        50.47345         2.67291
C         37.54749        52.43760         1.54189
C         36.50345        51.81266         2.11942
C         40.48771        48.54280         2.57954
C         40.34992        49.86453         2.14234
C         39.11195        50.68705         2.47731
C         40.09360        52.58873         1.22971
C         38.86163        51.71157         1.36483
C         40.03923        53.97476         1.05020
C         42.81714        48.50289         1.88718
C         41.70128        47.86744         2.43848
C         42.70092        49.83549         1.42493
C         41.45295        50.51138         1.53213
C         42.49201        52.65552         0.77599
C         41.34471        51.92822         1.15703
C         42.43684        54.06292         0.63201
C         41.20020        54.70997         0.81538
C         45.08311        45.69327         0.80670
C         44.00209        46.41469         1.13698
C         45.37634        48.55937         1.47044
C         44.12082        47.72482         1.90467
C         45.09191        49.90568         0.82624
C         43.86771        50.52121         0.88841
C         44.97985        52.72590         0.39415
C         43.71174        51.90773         0.30117
C         44.92968        54.11525         0.37882
C         43.66975        54.82631         0.38571
C         44.88664        56.94271         0.01952
C         43.67783        56.19935         0.21137
C         47.69651        44.16947         0.46462
C         47.64362        45.57579         0.45623
C         46.44589        46.30636         1.04011
C         47.61323        48.47873         0.35429
C         46.30764        47.75232         0.53133
C         47.53345        49.91677         0.16372
C         46.26573        50.61427         0.32528
C         47.39056        52.76725        -0.23221
C         46.20935        52.00742         0.21090
C         47.47950        54.20767         0.11023
C         46.17939        54.91773         0.40592
C         47.37065        57.16400        -0.19157
C         46.11968        56.36380         0.13909
C         47.57313        58.35792         0.72827
C         50.05424        44.18931        -0.17366
C         48.86511        43.49093         0.14889
C         50.01452        45.61570        -0.20792
C         48.80160        46.30408         0.12013
C         50.01087        48.46091        -0.16066
C         48.78519        47.76025         0.13006
C         50.01812        49.94343         0.09918
C         48.69834        50.60973        -0.14168
C         49.96203        52.80970        -0.47659
C         48.69711        52.03366        -0.45262
C         49.91573        54.26550        -0.48536
C         48.69609        54.96483        -0.27608
C         49.88851        57.09177        -0.27932
C         48.67703        56.37081        -0.24005
C         49.84021        58.60250        -0.23399
C         48.72411        59.04051         0.69377
C         52.55491        41.39059        -0.52024
C         51.42417        42.08624        -0.23521
C         52.40831        44.24439        -0.91990
C         51.28802        43.50665        -0.48887
C         52.39281        45.67228        -0.91807
C         51.19723        46.34778        -0.54908
C         52.34786        48.53382        -1.07252
C         51.16212        47.78666        -0.51129
C         52.35424        49.99655        -0.72750
C         51.19133        50.67307        -0.49510
C         52.40361        52.82649        -0.90072
C         51.15564        52.12058        -0.55665
C         52.38634        54.34775        -0.87267
C         51.11717        55.01292        -0.55930
C         52.39743        57.11848        -0.24600
C         51.12536        56.41306        -0.37354
C         52.35938        58.51916         0.10275
C         51.17250        59.24524         0.09321
C         52.36236        61.39162         0.21134
C         51.20118        60.67860         0.10956
C         54.86334        40.07211        -2.06696
C         54.93001        41.33069        -1.53479
C         53.63319        42.02121        -1.29161
C         54.86790        44.22919        -1.74167
C         53.57914        43.51264        -1.45432
C         54.86452        45.74356        -1.57102
C         53.62242        46.41883        -1.13472
C         54.91777        48.49342        -0.93692
C         53.66230        47.79290        -0.93236
C         54.90499        49.92764        -0.54615
C         53.63540        50.70151        -0.55303
C         54.88940        52.87802        -0.73776
C         53.68663        52.16159        -0.69634
C         54.85554        54.32740        -0.75696
C         53.66552        55.03960        -0.66278
C         54.89261        57.15469        -0.17112
C         53.62783        56.45534        -0.36575
C         54.90255        58.51083         0.25083
C         53.61484        59.17832         0.50065
C         54.92291        61.41652         0.51184
C         53.61071        60.73407         0.58246
C         55.00170        62.82498         0.45040
C         57.19259        40.17152        -2.70013
C         56.00121        39.46668        -2.66589
C         57.42820        41.40386        -2.03829
C         56.24325        42.06560        -1.33709
C         57.34473        44.27411        -1.76124
C         56.16667        43.55094        -1.64531
C         57.36165        45.72183        -1.66904
C         56.16180        46.42751        -1.44460
C         57.38556        48.62480        -1.40834
C         56.12510        47.83286        -1.16424
C         57.44794        49.97015        -0.70607
C         56.17550        50.71697        -0.50154
C         57.38475        52.89461        -0.70728
C         56.15568        52.18761        -0.64487
C         57.39083        54.31978        -0.71429
C         56.12809        55.09344        -0.99051
C         57.34496        57.16255        -0.23311
C         56.11588        56.48053        -0.38902
C         57.36801        58.53749         0.17419
C         56.12140        59.22345         0.41902
C         57.35111        61.36392         0.90833
C         56.10255        60.64835         0.62759
C         57.41517        62.81948         0.79436
C         56.21681        63.50359         0.53603
C         60.27771        37.08692        -2.05263
C         59.22061        37.71570        -2.70946
C         60.12999        39.93903        -2.09886
C         59.18557        39.10802        -2.74923
C         59.97977        41.39407        -2.01949
C         58.69417        42.05046        -2.01581
C         59.92712        44.32303        -1.90863
C         58.63064        43.54531        -2.00281
C         59.89485        45.75138        -1.55688
C         58.63919        46.44313        -1.51436
C         59.86922        48.51390        -0.75610
C         58.63479        47.81181        -1.24919
C         59.86302        50.02706        -0.93209
C         58.70005        50.74613        -0.84619
C         59.84946        52.92931        -0.71198
C         58.65574        52.19464        -0.72554
C         59.84905        54.35515        -0.70925
C         58.59370        55.04384        -0.66159
C         59.79975        57.18920        -0.52209
C         58.58190        56.47635        -0.49625
C         59.81321        58.58800        -0.22721
C         58.61671        59.21649         0.20646
C         59.91057        61.37443         0.46115
C         58.70271        60.58687         0.70794
C         59.91546        62.77010         0.71116
C         58.68608        63.48691         0.91423
C         59.96595        65.54829         1.20254
C         58.75358        64.87965         1.14943
C         62.29240        36.33492         0.23951
C         62.53828        37.07310        -1.06889
C         61.33025        37.85324        -1.54612
C         62.47245        40.04383        -1.27146
C         61.29296        39.26947        -1.60008
C         62.42772        41.45083        -1.44316
C         61.18225        42.14588        -1.76025
C         62.38078        44.32428        -1.65832
C         61.17926        43.56576        -1.73306
C         62.38970        45.72493        -1.54057
C         61.13631        46.46372        -1.41994
C         62.42921        48.56778        -0.91441
C         61.13780        47.84372        -1.20236
C         62.38505        50.05730        -1.16725
C         61.13824        50.73280        -0.73731
C         62.46385        52.94945        -0.82361
C         61.13978        52.22086        -0.59621
C         62.30509        54.42398        -1.10985
C         61.06356        55.08863        -0.83834
C         62.23688        57.25039        -0.96613
C         61.03649        56.51346        -0.80739
C         62.24576        58.65239        -0.69928
C         61.05226        59.30926        -0.27856
C         62.32437        61.41631        -0.01330
C         61.08650        60.70380         0.03784
C         62.36389        62.79303         0.34272
C         61.16097        63.48532         0.66984
C         62.45903        65.58390         1.01106
C         61.18868        64.88340         0.95942
C         62.54341        66.96582         1.26072
C         64.73919        35.85825         0.33114
C         63.31893        35.78361         0.89961
C         64.95652        37.28009        -0.21445
C         63.78975        37.93194        -0.91370
C         64.87147        40.14892        -0.66378
C         63.69604        39.40657        -0.92566
C         64.86330        41.54982        -0.94873
C         63.64978        42.16570        -1.33299
C         64.94383        44.34386        -1.61834
C         63.65065        43.57775        -1.72697
C         64.86372        45.80952        -1.59950
C         63.64948        46.45217        -1.53061
C         64.76606        48.64009        -1.78615
C         63.63640        47.90874        -1.51654
C         64.67729        50.10346        -2.14170
C         63.42810        50.77153        -1.64264
C         64.66494        52.98855        -1.98850
C         63.32975        52.26526        -1.90106
C         64.58358        54.47713        -2.20828
C         63.42975        55.13940        -1.48057
C         64.67784        57.25077        -1.43578
C         63.45760        56.57227        -1.34166
C         64.70929        58.75764        -1.40775
C         63.46934        59.38762        -0.79341
C         64.80670        61.47599        -0.56106
C         63.50809        60.72321        -0.41951
C         64.83330        62.77694         0.20028
C         63.63418        63.47850         0.43034
C         64.93173        65.52925         0.89483
C         63.67157        64.85737         0.80632
C         64.98358        66.93193         1.19895
C         63.77377        67.62051         1.35101
C         66.68350        33.56110         2.62224
C         65.78402        34.06144         1.72790
C         66.82883        36.28554         1.76428
C         65.77323        35.44168         1.35195
C         66.94888        37.63471         1.25758
C         65.97142        38.16879         0.38372
C         67.16507        40.30012         0.34760
C         66.01383        39.52625        -0.00349
C         67.28512        41.67103        -0.20706
C         66.06037        42.34671        -0.71977
C         67.06753        44.62065        -0.26322
C         66.09005        43.69835        -0.96706
C         67.25143        45.97589        -0.91617
C         66.17061        46.50638        -1.84547
C         67.20402        48.75145        -1.57715
C         66.07546        48.01286        -1.79373
C         67.12603        50.21701        -1.39947
C         65.89480        50.90288        -1.77827
C         67.21406        52.95426        -2.31073
C         65.87141        52.31023        -1.95373
C         67.11859        54.50676        -2.56247
C         65.89856        55.18241        -1.99437
C         67.18706        57.23719        -1.52725
C         65.91630        56.53157        -1.67249
C         67.20958        58.51459        -0.91807
C         65.98337        59.29840        -0.79171
C         67.18887        61.10238         0.43130
C         65.99822        60.57618        -0.32091
C         67.30780        62.61074         0.46945
C         66.07829        63.39785         0.46526
C         67.46329        65.46423         0.67168
C         66.12212        64.77805         0.73613
C         67.44846        66.87438         1.20339
C         66.28212        67.58999         1.37296
C         67.53815        69.60649         2.05685
C         66.36268        68.96309         1.84692
C         68.71065        32.56835         4.55753
C         68.82962        33.83220         3.95648
C         67.59225        34.49021         3.38122
C         69.01497        36.50844         2.85288
C         67.85896        35.75690         2.60066
C         69.07036        37.86450         2.47542
C         68.05754        38.43916         1.65213
C         69.56092        40.43452         1.20218
C         68.19407        39.76357         1.12355
C         69.54778        41.94020         1.00407
C         68.47325        42.50412         0.16235
C         69.45044        44.74750         0.44113
C         68.39539        43.98159         0.07300
C         69.46083        46.20606         0.15502
C         68.33342        46.74095        -0.64649
C         69.68421        48.88609        -0.96757
C         68.52377        48.03158        -1.42752
C         69.67155        50.27792        -1.18726
C         68.37653        51.01408        -1.15784
C         69.64881        53.09880        -1.85204
C         68.34217        52.55067        -1.31330
C         69.63313        54.41668        -2.37504
C         68.41855        55.22757        -2.26909
C         69.64732        57.37813        -1.82120
C         68.41873        56.58505        -1.92098
C         69.68165        58.52310        -0.97799
C         68.44498        59.11588        -0.52611
C         69.68895        61.03389         0.40337
C         68.47957        60.41324         0.07086
C         69.74403        62.41478         0.79110
C         68.51158        63.18264         0.80701
C         69.90483        65.24812         1.29139
C         68.54328        64.60349         1.32789
C         69.97204        66.69633         1.72233
C         68.76416        67.53009         1.30988
C         70.12698        69.49625         2.26543
C         68.82866        68.98342         1.72390
C         70.17722        70.73736         2.91968
C         71.06384        32.56019         5.09502
C         69.81563        31.93487         5.12401
C         71.18714        33.82807         4.52955
C         70.07436        34.48700         3.98229
C         71.07272        36.80052         4.24282
C         70.28235        35.85333         3.36443
C         71.02953        38.12765         4.05387
C         70.08219        38.74641         3.09986
C         71.55854        40.87094         2.71947
C         70.31500        40.09577         2.47910
C         71.67656        42.11102         2.20014
C         70.60635        42.70158         1.40185
C         71.92469        44.74348         0.60003
C         70.64351        44.20622         1.21210
C         71.99384        45.99959         0.12288
C         70.80647        46.88628         0.03714
C         72.07069        48.99523        -0.54470
C         70.88288        48.24704        -0.58216
C         72.08548        50.32098        -0.97739
C         70.88524        50.98923        -1.28298
C         72.01862        52.89844        -2.39692
C         70.85256        52.36129        -1.81366
C         71.99805        54.15050        -3.00272
C         70.81809        54.89648        -2.97184
C         71.99599        57.83950        -2.40827
C         70.81375        57.12132        -2.57910
C         72.06280        58.82526        -1.41626
C         70.91776        59.17180        -0.70428
C         72.20121        60.97695         0.53297
C         70.93653        60.18053         0.42322
C         72.20049        62.29270         0.84700
C         70.98350        63.05711         1.00037
C         72.32391        65.14423         1.58775
C         71.04863        64.48611         1.27929
C         72.44581        66.47916         1.70052
C         71.29754        67.40428         1.36343
C         72.53288        69.31846         2.51764
C         71.32479        68.75949         2.07803
C         72.56970        70.55750         3.15979
C         71.38703        71.26442         3.37214
O         61.21776        51.36798         0.60892
O         68.95375        68.58070         0.30046
O         53.51723        59.88498         1.76971
O         53.16906        42.63052        -2.56076
O         47.81714        52.43086        -1.58410
O         67.59076        50.60154         0.01250
O         64.50657        43.79539        -2.92085
O         56.95243        50.13443         0.64341
O         64.92354        37.40439        -1.67848
O         52.33219        53.61023        -2.14562
O         69.45435        39.98092         3.64748
O         47.10114        54.50118         1.49447
O         58.11288        60.80313         2.02042
O         54.19509        50.15932         0.73563
O         59.27273        44.06966        -3.21992
O         68.41787        41.81965        -1.16473
O         69.97811        47.00970         1.27072
O         58.19309        39.68162        -3.55062
O         70.80526        56.15072        -3.59947
O         54.72824        45.10843        -2.90053
O         71.39535        67.62890        -0.05775
H         70.61473        68.17454        -0.32218
O         68.08336        53.14325        -0.03245
H         67.64883        52.45004         0.51940
O         70.32301        39.88250         0.08773
H         69.91218        40.23777        -0.73441
O         66.94376        54.67554        -4.02005
H         65.96567        54.72535        -4.19170
O         50.24781        50.07641         1.55545
H         51.13284        49.70034         1.75382
O         62.63117        48.43715         0.55186
H         63.39552        49.00002         0.80169
O         45.70206        47.67334        -0.78229
H         45.60303        48.58552        -1.13049
O         64.23953        54.66024        -3.65447
H         63.49822        54.02273        -3.82471
O         71.10037        35.61867         2.17150
H         71.21773        36.47614         1.71058
O         69.91888        66.65969         3.18353
H         69.18511        66.04238         3.42359
O         64.56250        50.15878        -3.61933
H         65.41830        49.85439        -3.99247
O         49.48093        59.07369        -1.58431
H         50.14991        58.72006        -2.20828
O         64.89757        61.88401        -1.97122
H         64.87711        61.05230        -2.51061
O         66.92221        60.72436         1.84071
H         67.78315        60.71513         2.31065
O         63.23901        52.88189         0.39782
H         62.73463        52.31053         1.02663
O         64.72664        59.20065        -2.82024
H         63.97884        58.76008        -3.27809
O         66.80964        34.92862         4.55798
H         65.99542        35.36063         4.22265
O         62.80135        36.05955        -2.08103
H         63.34389        36.48581        -2.78107
O         56.16159        55.31087        -2.46039
H         55.26276        55.59235        -2.73630
O         57.33488        49.00705        -2.83569
H         57.28725        48.18183        -3.36560
O         67.60583        52.32661        -3.55072
H         67.46034        53.00791        -4.25842
O         68.94445        47.61221        -2.76734
H         68.21631        47.06233        -3.15347
O         38.75543        50.95623         0.12418
H         38.60478        51.59096        -0.60641
O         62.67357        52.41550        -3.19902
H         63.09100        51.74662        -3.79166
O         66.41743        44.87262         1.03289
H         67.01091        45.45026         1.55992
O         43.48732        51.69181        -1.14260
H         43.37830        52.57402        -1.55748
O         46.15428        48.87641         2.65484
H         45.53920        48.78282         3.42227
O         52.12881        48.54394        -2.53533
H         52.09918        47.61061        -2.83911
O         70.85914        59.37729         1.66276
H         71.05752        59.97699         2.41255
O         39.44689        51.44725         3.67410
H         39.62662        50.81056         4.39664
O         67.83439        65.55927        -0.73390
H         67.19873        66.15700        -1.17993
O         70.55377        44.74361         2.56132
H         70.45325        45.72482         2.47122
O         66.57879        46.15631        -3.21699
H         66.20286        45.27412        -3.43640
O         68.18473        64.52378         2.75626
H         68.70677        63.79463         3.15343
O         47.13341        57.67702        -1.53101
H         47.87781        58.29672        -1.74625
O         56.53519        41.99320         0.11187
H         56.58655        41.04444         0.35527
O         64.83163        34.89118        -0.73016
H         64.12371        35.11617        -1.38852
O         59.84086        48.34163         0.71588
H         60.75745        48.52600         1.03799
O         46.69610        46.31624         2.48048
H         47.13847        47.17091         2.70013
O         44.31131        47.33613         3.29476
H         45.06935        46.69500         3.29578
H         37.94174        48.90427         3.26009
H         35.73968        49.93868         2.98835
H         37.40444        53.42414         1.07534
H         35.51752        52.29753         2.17266
H         39.64841        48.02060         3.05867
H         39.08249        54.50928         1.12723
H         41.79617        46.83829         2.81137
H         41.12738        55.80301         0.73814
H         44.98136        44.72085         0.30210
H         42.99146        46.01740         0.95492
H         44.80986        58.01152        -0.22546
H         42.73255        56.75801         0.18283
H         46.80031        43.59533         0.73941
H         46.74930        58.67437         1.38596
H         48.85476        42.39293         0.15719
H         48.88071        59.92382         1.33120
H         52.66830        40.34668        -0.19404
H         50.61370        41.57260         0.30004
H         52.35698        62.47047         0.00283
H         50.26216        61.20719        -0.10934
H         53.88713        39.57384        -2.15477
H         54.08179        63.41232         0.32909
H         55.89956        38.53448        -3.23411
H         56.21827        64.59767         0.43655
H         60.34140        35.99140        -2.01520
H         58.44352        37.13583        -3.22291
H         59.95891        66.62225         1.43067
H         57.82963        65.44424         1.33484
H         61.26103        36.23823         0.61218
H         61.63091        67.56110         1.39719
H         63.14559        35.21076         1.82402
H         63.77030        68.69913         1.55630
H         66.66306        32.49221         2.87802
H         65.06549        33.39226         1.23313
H         67.52314        70.60599         2.51426
H         65.43154        69.48447         2.10756
H         67.73189        32.06962         4.59050
H         69.25646        71.31606         3.07588
H         71.94418        32.05957         5.52146
H         69.70332        30.94426         5.58615
H         72.17151        34.31645         4.50539
H         71.75932        36.37806         4.99154
H         71.63510        38.80190         4.67715
H         72.32900        40.46334         3.38938
H         72.55991        42.72628         2.42209
H         72.82943        44.11697         0.61672
H         72.94165        46.37630        -0.29110
H         73.00690        48.52531        -0.21199
H         73.04209        50.86002        -1.00703
H         72.94646        52.31158        -2.40968
H         72.89147        54.55573        -3.49430
H         72.86831        57.60954        -3.03281
H         73.01387        59.34486        -1.24084
H         73.15930        60.44180         0.46436
H         73.16545        62.80517         0.95850
H         73.20433        64.51574         1.78285
H         73.43480        66.90214         1.92822
H         73.47872        68.78326         2.35876
H         73.53013        70.97079         3.49765
H         71.40453        72.23788         3.88119
