         657
 CSIRO Nanostructure Databank - Neutral Graphene Oxide Data Set
C          6.56762        31.78398         2.49786
C          6.58584        33.14618         2.55870
C          8.73672        27.51022         1.37951
C          8.71871        28.92685         1.32490
C          7.64568        29.66252         1.89081
C          8.64629        31.78544         1.13306
C          7.61519        31.05486         1.83263
C          8.62356        33.18804         1.15838
C          7.63912        33.89363         1.92395
C          8.79526        36.04457         1.52651
C          7.72230        35.28176         2.06754
C          8.94366        37.38876         1.87738
C         11.00324        23.20020         0.67743
C         10.97346        24.58664         0.53885
C          9.84257        25.34890         0.96353
C         11.09134        27.48195         0.54671
C          9.82858        26.74340         0.92702
C         10.81337        28.86360        -0.01924
C          9.75867        29.64925         0.64863
C         10.85199        31.74465        -0.07374
C          9.72238        31.04533         0.50098
C         10.81882        33.21368        -0.19406
C          9.62011        33.97885         0.41551
C         10.90271        36.10955         0.19026
C          9.79817        35.40316         0.70336
C         10.75821        37.65579         0.14780
C         10.02097        38.18018         1.38169
C         11.42292        40.25536         1.70501
C         10.29897        39.36539         2.02349
C         11.35933        41.09965         0.41997
C         13.26106        18.87641         0.56453
C         13.31608        20.23429         0.15133
C         12.20336        21.04809         0.52208
C         13.27756        23.09445        -0.29490
C         12.13654        22.42400         0.28549
C         13.25727        24.48945        -0.48895
C         12.10271        25.27812        -0.08595
C         13.13885        27.30893        -1.08926
C         12.07119        26.65414        -0.23771
C         13.18564        28.85458        -1.08549
C         11.95194        29.60805        -0.67024
C         13.22973        31.81016        -0.70330
C         12.00751        31.07499        -0.49065
C         13.24997        33.21416        -0.62070
C         12.06450        33.97403        -0.37191
C         13.26295        36.13061        -0.82443
C         12.03997        35.39177        -0.29372
C         13.31184        37.62016        -0.41042
C         12.06653        38.41526        -0.08106
C         13.61433        40.33164         0.42650
C         12.24225        39.80947         0.50213
C         13.60336        41.74641         0.48268
C         12.32190        42.27231         0.41325
C         13.31957        44.53594         0.24545
C         12.17787        43.69648         0.35345
C         13.25166        45.95679         0.08292
C         15.81790        14.53539         0.35788
C         15.72627        15.92844         0.21020
C         14.52191        16.63246         0.64772
C         15.81156        18.79358        -0.80738
C         14.11252        17.83392         0.09129
C         15.74587        20.23005        -0.72218
C         14.46619        20.92142        -0.45027
C         15.68618        23.03115        -1.10320
C         14.44738        22.31145        -0.58144
C         15.69189        24.51599        -0.81521
C         14.50275        25.18976        -0.75113
C         15.74578        27.41895        -0.91587
C         14.47818        26.68287        -0.71432
C         15.76071        28.87631        -1.14922
C         14.47751        29.61972        -1.17782
C         15.69972        31.71144        -0.71895
C         14.49511        31.08021        -0.87325
C         15.73721        33.17448        -0.31880
C         14.55503        33.90524        -0.96887
C         15.79027        35.98430        -0.54399
C         14.57382        35.37619        -0.62141
C         15.90575        37.39590        -0.13097
C         14.64352        38.17281         0.03731
C         16.08976        40.32114         0.18753
C         14.74517        39.63171         0.15590
C         16.01264        41.79837        -0.13635
C         14.86476        42.51261         0.55233
C         15.73955        44.61474        -0.28491
C         14.64301        43.92036         0.11768
C         15.71383        46.07007        -0.14244
C         14.40373        46.75453        -0.08481
C         15.64919        48.91064        -0.16352
C         14.44238        48.16812        -0.08576
C         15.67574        50.29780        -0.00594
C         18.32717        10.33806         0.21317
C         18.32682        11.72640        -0.04600
C         17.09208        12.41635         0.09301
C         18.21172        14.53531        -0.25746
C         17.01166        13.81770         0.05949
C         18.18163        15.95762        -0.27541
C         16.91807        16.64587        -0.17954
C         18.22642        18.74932        -0.54318
C         16.93181        18.05637        -0.42685
C         18.22975        20.22356        -0.79664
C         16.94213        20.91782        -0.72843
C         18.23385        23.03885        -1.02497
C         16.95931        22.39696        -0.50573
C         18.26138        24.52392        -0.99317
C         16.99787        25.25573        -0.57296
C         18.28618        27.38933        -1.07647
C         16.98752        26.63147        -1.31983
C         18.24098        28.79567        -1.06350
C         16.97181        29.51640        -1.06503
C         18.29545        31.67823        -0.69505
C         16.96889        30.95532        -0.71997
C         18.37600        33.18718        -0.50322
C         17.04440        33.88003        -0.63214
C         18.28684        35.99706        -0.89209
C         17.05620        35.25666        -0.68337
C         18.27311        37.43373        -0.90764
C         17.15335        38.11723        -0.45195
C         18.20013        40.29651        -1.31923
C         17.05589        39.56634        -0.67897
C         18.19189        41.81353        -1.45362
C         16.99064        42.46919        -0.78240
C         18.24222        44.66133        -0.79483
C         16.90175        43.96387        -1.00039
C         18.22557        46.04953        -0.68973
C         16.99490        46.79408        -0.31213
C         18.20031        48.95383         0.00117
C         16.96243        48.27803        -0.57805
C         18.13391        50.34509         0.39726
C         16.86997        51.05567         0.21240
C         17.60168        53.40041         0.76426
C         16.75052        52.47357         0.12541
C         17.87463        54.73078         0.41879
C         20.50800         6.18343         1.68184
C         20.63381         7.61800         1.22705
C         19.49350         8.28101         0.82272
C         20.78814        10.30764         0.22928
C         19.53145         9.64029         0.39549
C         20.82375        11.69385        -0.24478
C         19.55593        12.41170        -0.35883
C         20.46721        14.65570        -1.06315
C         19.41720        13.83539        -0.57926
C         20.59800        16.01826        -0.70644
C         19.42656        16.66749        -0.31626
C         20.71402        18.86485        -0.21127
C         19.43247        18.11992         0.09492
C         20.74785        20.20253        -0.52963
C         19.51013        20.96631        -0.67497
C         20.74948        22.99544        -1.44348
C         19.51358        22.30493        -0.92666
C         20.76605        24.48518        -1.26623
C         19.58570        25.23086        -0.70620
C         20.73095        27.39959        -1.31367
C         19.52645        26.69910        -1.09806
C         20.70325        28.81634        -1.38653
C         19.47399        29.52805        -1.16357
C         20.62638        31.65101        -1.68914
C         19.46200        30.93621        -1.18397
C         20.64369        33.18150        -1.73555
C         19.47251        33.90196        -1.25682
C         20.71855        36.02667        -1.50884
C         19.48543        35.29661        -1.22726
C         20.72666        37.44396        -1.40042
C         19.47692        38.18614        -1.25248
C         20.74614        40.35308        -1.60425
C         19.46259        39.55954        -1.40261
C         20.69284        41.78642        -1.08657
C         19.48386        42.50149        -1.05900
C         20.78211        44.62331        -1.03480
C         19.45500        43.90770        -0.86703
C         20.76743        46.09345        -0.60026
C         19.45858        46.84093        -0.57187
C         20.68388        48.91486         0.07172
C         19.38337        48.22521        -0.02436
C         20.64737        50.34579         0.54413
C         19.33676        50.97909         0.84092
C         20.62520        52.96302         1.57924
C         19.40094        52.24257         1.45444
C         20.65312        54.34056         1.83465
C         18.89951        55.50490         1.04863
C         20.67271        57.28746         1.17016
C         19.44746        56.70366         0.63303
C         20.78206        58.68561         1.09535
C         22.75188         3.85685         3.69009
C         21.64057         4.40666         3.01986
C         22.93303         6.38818         2.44045
C         21.71991         5.65468         2.40570
C         23.05750         7.66933         1.79004
C         21.89410         8.28780         1.16483
C         23.29687        10.16535         0.35727
C         21.95938         9.58200         0.58262
C         23.41612        11.58859        -0.16327
C         22.09735        12.29524        -0.38160
C         23.32756        14.48181        -0.45951
C         22.34167        13.62020        -0.88412
C         23.26899        15.96598        -0.82667
C         21.94387        16.62864        -0.39589
C         23.23698        18.87695         0.23519
C         21.95663        18.08900        -0.01349
C         23.23623        20.27549        -0.35621
C         22.01875        20.93681        -0.65351
C         23.24362        23.03946        -1.02554
C         22.03086        22.30842        -1.00747
C         23.26784        24.47472        -1.32753
C         21.98582        25.19239        -1.75103
C         23.17923        27.35508        -1.56158
C         22.00049        26.68363        -1.46518
C         23.22874        28.84490        -1.78955
C         21.92086        29.56009        -1.54636
C         23.12853        31.73738        -1.50839
C         21.90122        30.92981        -1.67442
C         23.13033        33.19321        -1.77549
C         21.95037        33.89341        -1.74883
C         23.18556        36.04915        -1.69014
C         21.94088        35.34003        -1.69306
C         23.17533        37.46117        -1.48199
C         21.94021        38.14213        -1.36356
C         23.20344        40.29803        -0.96698
C         21.88185        39.58357        -0.93081
C         23.17253        41.70102        -0.67881
C         21.93807        42.43637        -0.73935
C         23.15004        44.49960        -0.10708
C         21.96083        43.83421        -0.52127
C         23.15666        45.88599         0.23720
C         21.84336        46.61717         0.34034
C         23.17326        48.74930         0.83660
C         21.97198        48.12851         0.20730
C         23.05722        50.09491         1.51895
C         21.88160        50.93057         1.09956
C         23.11740        52.98334         1.63757
C         21.87874        52.26208         1.44616
C         23.09545        54.37228         1.64264
C         21.84610        55.10967         1.69408
C         23.12605        57.21256         1.95216
C         21.82089        56.52276         1.59310
C         23.15374        58.70073         1.72979
C         21.97711        59.40944         1.40486
C         23.22850        61.49672         1.54685
C         22.03040        60.82552         1.31655
C         23.94120         4.55565         3.74943
C         25.28023         6.54571         3.18559
C         24.06191         5.83207         3.12836
C         25.41110         7.80326         2.56618
C         24.27930         8.34686         1.86684
C         25.64219        10.43467         1.40787
C         24.47224         9.58329         1.09503
C         25.63826        11.80960         1.12923
C         24.38084        12.44473         0.66776
C         25.68732        14.62648         0.45632
C         24.39380        13.93481         0.41021
C         25.79182        15.91040        -0.33903
C         24.49158        16.72339        -0.29657
C         25.75750        18.82725         0.06752
C         24.48872        18.06427        -0.07606
C         25.74021        20.32741        -0.09655
C         24.44661        20.98838        -0.41188
C         25.74834        23.07597        -0.78932
C         24.45717        22.35455        -0.75716
C         25.74529        24.52446        -1.13180
C         24.43970        25.16649        -1.41053
C         25.70561        27.31832        -1.22578
C         24.47785        26.61755        -1.82174
C         25.70456        28.80562        -1.01907
C         24.40288        29.53325        -1.09826
C         25.70022        31.75834        -1.12539
C         24.38394        31.03700        -1.13313
C         25.74390        33.14661        -1.68015
C         24.42737        33.89118        -1.90502
C         25.64946        36.05283        -1.58755
C         24.43589        35.35673        -1.74706
C         25.63154        37.45907        -1.47456
C         24.41473        38.17446        -1.36537
C         25.66223        40.20462        -0.54461
C         24.38876        39.58296        -1.05711
C         25.66176        41.71026        -0.48408
C         24.38253        42.39521        -0.37445
C         25.59666        44.33054         0.60947
C         24.36079        43.74544        -0.01762
C         25.55739        45.83046         0.70241
C         24.35571        46.52207         0.67055
C         25.59292        48.62487         1.45019
C         24.27801        47.85981         1.38843
C         25.60102        50.05525         1.97056
C         24.36403        50.85479         1.57549
C         25.62284        52.92836         2.09451
C         24.35846        52.21302         1.67588
C         25.64772        54.34723         1.56035
C         24.36590        55.08333         1.37018
C         25.63600        57.24802         1.78563
C         24.35616        56.59870         1.25165
C         25.60329        58.61189         2.03573
C         24.38830        59.37677         1.87534
C         24.40441        60.78857         1.81213
C         26.63369         8.52929         2.61164
C         27.89472        10.64977         2.33084
C         26.74169         9.84622         2.10073
C         27.92227        11.99380         1.98486
C         26.76963        12.61761         1.42437
C         28.07539        14.71959         1.07215
C         26.80604        14.01339         1.00828
C         28.13946        16.07805         0.59546
C         27.01297        16.68822         0.04228
C         28.25189        18.85724         0.04882
C         27.03120        18.12168        -0.37441
C         28.28459        20.36415         0.01067
C         27.00762        21.00951        -0.46703
C         28.27375        23.04870        -1.11315
C         27.02927        22.32406        -0.86238
C         28.29145        24.44510        -1.28149
C         27.01533        25.15489        -1.72186
C         28.26685        27.39540        -1.62459
C         27.01233        26.61932        -1.26823
C         28.21005        28.86026        -1.21221
C         27.00780        29.52009        -1.05023
C         28.23864        31.73796        -1.21740
C         26.99385        30.99868        -0.96471
C         28.20987        33.17069        -1.32524
C         26.99710        33.88515        -1.47420
C         28.22095        36.11363        -1.58891
C         26.95318        35.36243        -1.20131
C         28.20990        37.46611        -1.65790
C         26.91178        38.19622        -1.57923
C         28.17706        40.27861        -0.80608
C         26.89316        39.63775        -1.21283
C         28.12904        41.77222        -0.80743
C         26.84273        42.41623        -0.44460
C         28.06998        44.46847         0.14041
C         26.88413        43.79345         0.01004
C         28.10431        45.77555         0.82541
C         26.79922        46.49128         1.12411
C         28.06286        48.64021         1.46580
C         26.78288        47.96645         1.32069
C         28.13825        50.06540         1.52244
C         26.90268        50.79452         1.68956
C         28.09354        52.94378         1.56390
C         26.88379        52.18025         1.72278
C         28.09566        54.36912         1.69428
C         26.91033        55.11183         1.73531
C         26.84656        56.50956         1.87570
C         29.16532        12.78949         2.30738
C         30.44563        14.84010         1.66231
C         29.22924        14.13870         1.63173
C         30.54746        16.17044         1.19053
C         29.38237        16.79933         0.69114
C         30.68650        18.93001         0.35433
C         29.41622        18.19708         0.35291
C         30.75747        20.18035        -0.20365
C         29.48746        20.76501        -0.82739
C         30.83002        23.02729        -0.87961
C         29.52680        22.26260        -1.10578
C         30.78714        24.52286        -1.01303
C         29.50010        25.23258        -1.20492
C         30.69394        27.41940        -0.90014
C         29.51402        26.64313        -1.18940
C         30.67262        28.86957        -0.94783
C         29.45956        29.58186        -1.11410
C         30.65941        31.76738        -0.97314
C         29.45579        31.03080        -1.12241
C         30.65415        33.20759        -1.08139
C         29.44800        33.88687        -1.35171
C         30.77389        36.05264        -1.72991
C         29.45333        35.28604        -1.93745
C         30.77565        37.56127        -1.73511
C         29.45958        38.32265        -1.92434
C         30.71120        40.40856        -0.99614
C         29.46216        39.60001        -1.08138
C         30.68167        41.77536        -0.74851
C         29.40588        42.54500        -0.85018
C         30.62944        44.61303         0.04558
C         29.35641        44.05128        -0.56401
C         30.61871        45.96654         0.51300
C         29.35903        46.55544         0.86698
C         31.01633        48.98399         1.01632
C         29.22852        47.82244         1.46618
C         30.59618        50.29753         0.77547
C         29.35043        50.83283         1.24457
C         29.27525        52.24527         1.27754
C         31.77900        16.91857         1.26522
C         33.08309        19.00356         0.96997
C         31.86899        18.23812         0.85742
C         33.17579        20.29626         0.50260
C         32.09645        20.87464        -0.39466
C         33.00568        23.14439         0.40839
C         31.95328        22.37170        -0.24370
C         33.02571        24.65705         0.26252
C         31.97202        25.31201        -0.56645
C         33.09945        27.47872        -0.25058
C         31.89177        26.78127        -0.50271
C         33.09004        28.89653        -0.43639
C         31.90139        29.59159        -0.74027
C         33.01099        31.78370        -0.38023
C         31.88675        31.05238        -0.73448
C         32.96539        33.26579        -0.13049
C         31.85812        33.95849        -0.87157
C         33.12946        36.08025        -0.89039
C         31.95266        35.35453        -1.12768
C         33.27758        37.53822        -1.27785
C         31.96468        38.29169        -1.21856
C         33.16306        40.37285        -0.60985
C         31.94661        39.65843        -0.95463
C         33.11342        41.78154        -0.38356
C         31.88688        42.49623        -0.44197
C         33.08541        44.59754         0.10753
C         31.83763        43.89891        -0.11191
C         33.06229        46.00409         0.24568
C         31.87422        46.71990         0.45792
C         31.95506        48.15603         0.39411
C         34.32745        21.10050         0.79794
C         35.44406        23.29475         0.98157
C         34.29295        22.48199         0.72937
C         35.47724        24.67187         0.79201
C         34.29416        25.39565         0.37838
C         35.64605        27.48548         0.04990
C         34.31509        26.75326         0.09137
C         35.45239        28.93536         0.46121
C         34.35512        29.63301        -0.25654
C         35.35613        31.87961         0.55131
C         34.29624        31.12809        -0.16641
C         35.45772        33.22637         0.32411
C         34.32613        33.89065        -0.36522
C         35.60232        36.08399        -0.16515
C         34.39074        35.36062        -0.61451
C         35.57683        37.52619        -0.20129
C         34.41975        38.23593        -0.56348
C         35.56956        40.36773        -0.02788
C         34.37437        39.65384        -0.42158
C         35.53432        41.77496         0.09247
C         34.33419        42.48955        -0.06109
C         34.29982        43.89098         0.11296
C         36.71950        25.40512         0.93828
C         38.13904        27.41930         0.64959
C         36.82608        26.73606         0.66762
C         38.27471        28.64754         1.22743
C         36.29255        29.66034         1.23500
C         37.79085        31.80691         1.33058
C         36.40099        31.13132         1.25523
C         37.80805        33.26002         1.00168
C         36.67798        33.95308         0.60103
C         37.93398        36.11240         0.64049
C         36.70226        35.39311         0.34168
C         37.93583        37.53264         0.53141
C         36.77169        38.24328         0.19999
C         36.75397        39.65539         0.22900
C         39.26818        29.68134         1.02365
C         40.24084        31.86415         0.78049
C         39.07702        31.04529         1.12298
C         40.27169        33.21061         0.85149
C         39.07973        33.97732         1.37420
C         39.07871        35.43182         1.02403
O         31.86574        24.87918        -1.96630
O         12.61166        38.40502        -1.44171
O         31.12368        36.78521        -2.96575
O         26.33657        26.76104        -0.00756
O         15.27138        37.53951         1.21242
O         26.78614        39.28452        -2.60057
O         21.87070        17.02393         1.01860
O         18.25131        52.86598         1.91452
O         26.30094        31.64014         0.19390
O         18.14501        23.83569        -2.26994
O         32.52102        24.05833         1.49435
O         16.57383        46.44864         1.05560
O         25.20613        33.32888        -3.03801
O         25.86035        19.67946         1.23800
O         18.40351        19.24729        -1.90526
O         17.05584        39.80787        -2.13471
O         23.54457        31.57232        -0.05449
O         16.91395        26.37997        -2.68301
O         36.94787        31.60975         2.52066
O         30.44294        22.46705        -2.22827
O         20.41497        46.92156        -1.72979
O         17.72942        31.10119         0.55666
O         21.44276        14.08809        -1.86033
O         28.67535        42.26030        -2.09825
O         37.20866        29.02405         2.07333
O         34.64176        34.34452        -1.69944
O         23.84587        13.35368         1.67316
O         20.79096        50.00734        -0.89338
O         10.81384        29.08393        -1.45230
O         13.66336        29.33073        -2.38690
O         14.66531        18.11968        -1.18713
O         30.34532        48.35833         2.09209
O         25.86936        24.11801         0.26224
O         27.03019        25.10463        -3.11946
O         20.37862        32.39817        -2.95968
O         25.07854        54.46718         0.21727
O         24.85514        29.06228         0.18471
O         24.23664         9.29050        -0.35928
O          9.70032        33.67631        -1.01347
O         19.47996        54.96956         2.23201
O         34.80246        30.44055        -1.40470
O         28.85001        39.54523         0.26469
O         23.05960        48.66478        -0.60297
O         27.49833        45.74124         2.19944
O         15.16948        27.21793         0.47412
O         24.25563        56.93038        -0.14574
H         24.76067        56.24142        -0.63634
O         30.34216        12.02002         2.02683
H         30.36691        11.83817         1.06519
O         19.77000        25.20515         0.74848
H         18.88533        25.37725         1.16060
O         16.57411        44.19043        -2.40577
H         17.18936        43.61512        -2.93033
O         25.98053        15.53539        -1.76182
H         26.40844        16.32020        -2.18705
O         28.50047        20.84210         1.36301
H         27.68959        20.61663         1.87444
O         23.48493        29.04700        -3.21643
H         23.97261        28.24972        -3.55698
O         20.66732        22.79809        -2.92333
H         19.76068        23.10365        -3.17885
O         16.62605        40.22439         1.53493
H         16.09521        40.83640         2.10005
O         15.22728        42.58896         1.99011
H         15.84748        43.34296         2.10093
O         18.80358        33.38834         0.89791
H         18.45700        32.62156         1.41196
O         23.32844        56.96284         3.37593
H         22.60431        57.40238         3.86891
O         17.11059        25.49572         0.84542
H         16.36283        26.09885         1.10421
O         22.74356        49.76264         2.92885
H         22.62032        50.61048         3.40829
O         15.67220        22.86454        -2.53655
H         16.33463        23.48820        -2.91888
O         25.58865        52.99645         3.54816
H         25.66450        52.06941         3.87640
O         24.66396        26.64697        -3.27464
H         23.99283        26.03638        -3.66125
O         39.16620        33.93173         2.84681
H         38.74728        33.09625         3.14824
O         23.89824        47.49853         2.75760
H         24.58804        46.89166         3.10430
O         22.01196        25.12039        -3.23217
H         21.66180        24.22155        -3.47307
O         12.87049        26.88328        -2.44303
H         13.19919        27.59211        -3.04458
O         29.42248        38.78459        -3.28648
H         29.73258        38.05098        -3.86083
O         29.32120        35.01770        -3.36587
H         29.92527        35.63709        -3.83850
O         18.08707        42.05038        -2.89873
H         17.43921        41.38499        -3.23284
O         29.28232        44.73370        -1.85349
H         28.85888        44.09629        -2.47884
O         29.28643        20.11143        -2.11480
H         29.85393        20.58213        -2.76771
O         12.02338        40.80728         2.83939
H         12.74102        41.41638         2.55995
O         15.55178        33.22561         1.12069
H         16.29743        32.73545         1.53055
O         21.33250        46.38867         1.69134
H         22.04803        46.64575         2.32309
O         27.02109        18.17006        -1.86372
H         27.79409        18.72001        -2.14898
O         25.49985        49.94690         3.43691
H         24.66961        49.43745         3.61129
O         17.05463        48.42804        -2.02231
H         17.15508        49.38142        -2.22609
O         23.32205        16.10549        -2.26176
H         24.18814        15.72251        -2.54465
O         36.01615        27.56290        -1.36690
H         35.39681        28.17894        -1.81607
O         11.78797        27.78247         1.81279
H         11.92788        26.93527         2.28720
O         20.98911        44.61103        -2.48707
H         20.63094        45.46702        -2.82814
O         20.23779         5.35155         0.53282
H         21.00457         5.41476        -0.07321
O         19.24138        18.17455         1.53534
H         20.03809        17.75822         1.93662
O         24.03675        11.53982        -1.47954
H         24.41994        10.63394        -1.57895
O         32.71424        33.47267         1.30862
H         31.84546        33.07052         1.52247
O         26.95477        35.43676         0.27907
H         26.27979        34.81259         0.62333
O         21.51521        39.55908         0.48929
H         22.16641        38.99928         0.96224
O         16.97122        22.62879         0.92847
H         16.15568        22.23861         1.30816
O         13.11458        36.09198        -2.28287
H         12.69958        36.94776        -2.55059
O         32.52425        20.62270        -1.77670
H         31.96572        21.19933        -2.35165
O         14.72808        33.79504        -2.40291
H         14.09324        34.42643        -2.81576
O         21.01315        40.43756        -3.02294
H         20.35216        41.04534        -3.41992
O         25.75955        39.77317         0.85574
H         25.15611        40.33217         1.39000
O         33.70453        37.52953        -2.68373
H         32.95842        37.13793        -3.19983
O          9.89312        37.94569        -0.97795
H         10.42289        37.81775        -1.79424
O         28.28901        27.41365        -3.07661
H         27.91310        26.52859        -3.38597
O         25.57640        43.85140         2.00913
H         26.33790        44.30316         2.45498
O         23.27700        19.10478         1.66974
H         23.10923        18.23715         2.10069
H          5.76807        31.21436         2.99348
H          5.80433        33.69484         3.10366
H          7.86102        26.99097         1.79828
H          6.83995        29.12367         2.41119
H          6.96447        35.80242         2.67179
H          8.26606        37.82734         2.62545
H         10.14228        22.68625         1.13094
H          8.95443        24.81181         1.33037
H          9.70688        39.62040         2.91643
H         10.41857        41.12681        -0.15259
H         12.47738        18.61317         1.29280
H         11.34368        20.55690         1.00320
H         11.17745        44.15352         0.32816
H         12.26640        46.44719         0.12047
H         14.92944        13.96838         0.67296
H         13.98255        16.22048         1.51389
H         13.50688        48.72579         0.08105
H         14.71875        50.83788         0.07182
H         17.37245         9.82508         0.39973
H         16.19061        11.82848         0.32380
H         15.90008        52.86430        -0.45511
H         17.39154        55.14776        -0.47596
H         19.60971         6.08745         2.34706
H         18.51878         7.77481         0.88054
H         18.92861        57.28226        -0.14586
H         19.91013        59.25982         0.74739
H         22.66459         2.87112         4.16762
H         20.69726         3.84431         2.97583
H         23.25711        62.59390         1.48999
H         21.11896        61.38554         1.06374
H         24.81086         4.13439         4.27383
H         26.13967         6.10751         3.71398
H         26.53044        59.14140         2.30519
H         25.35354        61.32664         1.94653
H         27.49224         8.08945         3.13991
H         28.77466        10.20336         2.81645
H         29.06417        54.89160         1.71202
H         27.77546        57.06014         2.09470
H         29.17597        12.97253         3.41988
H         31.32849        14.34716         2.09500
H         31.24025        50.96638         0.18464
H         30.19490        52.81952         1.09024
H         32.67481        16.41001         1.65266
H         33.92656        18.56983         1.52977
H         34.01692        46.55041         0.23246
H         32.77786        48.59501        -0.19002
H         35.23962        20.60095         1.16037
H         36.37383        22.78201         1.27249
H         36.45471        42.31511         0.35945
H         35.23879        44.43271         0.29991
H         37.60323        24.84513         1.28048
H         38.96160        26.96775         0.07326
H         38.85353        38.08581         0.78092
H         37.66715        40.20240         0.50632
H         40.26376        29.34886         0.68501
H         41.14390        31.32070         0.45988
H         41.19441        33.75581         0.60374
H         39.99669        36.00218         1.23363
