         244
 CSIRO Nanostructure Databank - Neutral Graphene Oxide Data Set
C          1.28412         2.10758        -0.30149
C          1.20915         3.46141        -0.09658
C          2.51512         1.41982        -0.48230
C          2.46447         4.26584         0.08998
C          1.19989         6.50480        -0.22827
C          1.15719         7.81001         0.14757
C          2.42375         5.75306        -0.19803
C          2.25022         8.44713         0.98507
C          1.20341        10.69353         0.91357
C          1.21895        12.08793         0.86074
C          2.36530         9.94364         0.73804
C          2.40498        12.80175         0.60026
C          1.32905        15.00790         1.14772
C          1.41962        16.38107         1.34425
C          2.43466        14.25147         0.69286
C          2.61782        17.07659         1.08738
C          2.74659        18.48069         1.36425
C          3.72430         2.12872        -0.64351
C          3.61900         3.60981        -0.64647
C          4.96267         1.51904        -0.84658
C          4.88477         4.42178        -0.77782
C          3.63484         6.44922        -0.01562
C          3.59101         7.63133         0.94744
C          4.88124         5.78272        -0.19939
C          4.86517         8.54946         0.91624
C          3.58824        10.62306         0.42304
C          3.59663        12.06546         0.31176
C          4.77855         9.89962         0.27735
C          4.81039        12.75092        -0.00086
C          3.64149        14.93078         0.36200
C          3.73620        16.36415         0.54595
C          4.77082        14.17045        -0.04034
C          4.93221        17.06937         0.30127
C          3.93525        19.13534         1.20132
C          5.10155        18.44177         0.70505
C          6.18500         2.27220        -1.00175
C          6.13988         3.69421        -0.94238
C          7.41129         1.60242        -1.16521
C          7.37407         4.48267        -0.92582
C          6.11154         6.40795         0.11283
C          6.10794         7.80530         0.49732
C          7.35459         5.78277        -0.23035
C          7.29191         8.51274         0.51692
C          6.01447        10.51817        -0.34417
C          6.04111        12.04210        -0.29015
C          7.31659         9.92191         0.18691
C          7.22434        12.70672        -0.63600
C          5.91786        14.85567        -0.59817
C          6.01332        16.42877        -0.43816
C          7.15539        14.13353        -0.85378
C          7.35522        16.99289        -0.41125
C          6.33931        19.06149         0.59822
C          7.59698        18.27437         0.35393
C          8.69600         2.29874        -1.53711
C          8.68451         3.78531        -1.16179
C          9.90047         1.57108        -1.00016
C          9.90214         4.40904        -0.59816
C          8.58485         6.41382         0.03692
C          8.52652         7.70322         0.81854
C          9.83029         5.77028        -0.13015
C          9.79165         8.51995         0.77532
C          8.49491        10.60967         0.00910
C          8.52173        11.86896        -0.85234
C          9.76897         9.99447         0.47625
C          9.87475        12.59138        -0.73667
C          8.16607        14.94490        -1.39061
C          8.40152        16.30036        -0.99005
C         10.07308        13.83196        -1.35352
C          9.82788        16.82701        -0.65240
C          8.72768        19.03472        -0.29666
C          9.84328        18.35379        -0.73828
C         11.08257         2.22779        -0.67438
C         11.07940         3.67352        -0.53696
C         12.30102         1.50834        -0.41802
C         12.37415         4.42477        -0.43066
C         11.04641         6.44636         0.30684
C         11.05676         7.77010         0.65198
C         12.28585         5.61137         0.53184
C         12.31089         8.53190         1.01134
C         11.07736        10.63415         0.20968
C         11.07319        11.98813        -0.22704
C         12.28881         9.95070         0.42583
C         12.30976        12.70984        -0.24249
C         11.16210        14.68303        -1.13950
C         11.03657        16.15651        -1.34766
C         12.34532        14.11169        -0.60204
C         12.31656        16.93174        -1.37633
C         11.06483        19.05198        -0.97330
C         12.30050        18.39858        -1.12006
C         13.52898         2.15518        -0.15756
C         13.57294         3.57302        -0.11231
C         14.76440         1.42776         0.04392
C         14.78624         4.26719         0.07617
C         13.56225         6.42107         0.45965
C         13.57605         7.77311         0.67801
C         14.76893         5.67802         0.20810
C         14.85741         8.56433         0.80419
C         13.51035        10.62994         0.21616
C         13.53080        12.01961        -0.02386
C         14.78226         9.86017        -0.00369
C         14.79229        12.74003        -0.01904
C         13.52188        14.86224        -0.53442
C         13.64712        16.17481        -1.28605
C         14.72772        14.21323        -0.00773
C         14.81654        17.01894        -0.80875
C         13.51034        19.10337        -1.07756
C         14.77642        18.44761        -0.94435
C         15.97581         2.07248         0.23462
C         16.02655         3.52513         0.22303
C         17.24878         1.37524         0.31357
C         17.22902         4.18509         0.39276
C         16.01798         6.39813         0.06642
C         16.09806         7.83438         0.34044
C         17.31345         5.61088         0.12583
C         17.26815         8.51898         0.16732
C         16.06947        10.65558         0.13447
C         16.02394        12.09745         0.06531
C         17.26121         9.97066         0.16808
C         17.28387        12.83714         0.10401
C         16.00776        14.98882         0.03839
C         16.00474        16.40575        -0.39285
C         17.28495        14.25544         0.05744
C         17.21492        17.12732        -0.25343
C         15.96316        19.18549        -0.79785
C         17.20551        18.55578        -0.48328
C         18.44461         2.02591         0.50598
C         18.47525         3.49625         0.86172
C         19.72064         1.34918         0.42342
C         19.75214         4.22287         0.45699
C         18.51529         6.39732         0.60471
C         18.57000         7.77759        -0.08659
C         19.79435         5.62445         0.41266
C         19.80212         8.51361         0.38202
C         18.57632        10.66207        -0.06887
C         18.51787        12.15400         0.16893
C         19.71311         9.98671         0.70630
C         19.73825        12.86061         0.26010
C         18.48692        14.98442         0.05425
C         18.45749        16.43731        -0.00709
C         19.73076        14.29241         0.18411
C         19.65683        17.15434         0.07535
C         18.38404        19.28451        -0.33091
C         19.61696        18.65582         0.24224
C         20.89887         2.03459         0.34687
C         20.95145         3.48606         0.31943
C         22.16010         4.19310         0.14057
C         21.01232         6.34050         0.30710
C         20.99301         7.81815         0.45002
C         22.19412         5.58741         0.15446
C         22.20256         8.57469         0.66034
C         21.02339        10.72696         0.53587
C         20.99634        12.14553         0.40087
C         22.21102         9.96027         0.64258
C         22.18631        12.92160         0.41229
C         20.95473        15.02645         0.19545
C         20.92432        16.47626         0.09348
C         22.16639        14.30214         0.30712
C         22.09221        17.23107        -0.08047
C         20.87485        19.33282        -0.21472
C         22.03937        18.63572        -0.31918
O          9.09034        14.31368        -2.22481
O         10.00420        16.48496         0.70743
O         16.75679         5.99500        -1.16849
O         15.21648        14.80859         1.27846
O          3.92505         4.23620        -1.91229
O          5.58933        15.79840        -1.67484
O         11.54534        16.64812        -2.62437
O          3.67727         6.85869         2.13319
O          8.09578         4.58540        -2.25234
O          9.76172         9.49989         1.88729
O         15.04436         8.87543         2.20497
H         14.15192         8.98594         2.61417
O          2.74283         4.24744         1.52974
H          3.08186         5.15108         1.81662
O         12.17485         5.06427         1.86903
H         12.10917         5.81233         2.50001
O          5.07177         8.88340         2.31989
H          4.66122         8.09624         2.79351
O          8.78828         2.20803        -2.99928
H          8.37496         3.03499        -3.34696
O         19.53400        18.89526         1.71562
H         18.73731        18.42027         2.03722
O         18.34645         6.60429         2.02977
H         18.33563         5.71413         2.45470
O         14.72202         9.44963        -1.40997
H         14.58383        10.25341        -1.95371
O          5.95514        10.16261        -1.76376
H          6.78374        10.51511        -2.18092
O          8.05435        17.91732         1.69524
H          8.86629        17.31895         1.54968
O         18.90088        10.50023        -1.48055
H         18.07435        10.56194        -2.00203
O         12.59814         5.00947        -1.75103
H         12.64930         4.28017        -2.40393
O          1.73396         8.35619         2.33661
H          2.27090         7.60996         2.73830
O         12.30150         8.71190         2.46886
H         11.44411         9.16643         2.67576
O         19.35791        10.08916         2.12010
H         19.91993         9.46569         2.62599
O          8.43258        11.40279        -2.24635
H          8.49223        12.20657        -2.81174
O         18.46076         3.59164         2.33979
H         19.20396         3.04320         2.67166
O          8.38295         7.26759         2.21075
H          8.38624         8.08457         2.75784
O         18.77558         7.59913        -1.50646
H         17.99361         7.10419        -1.85446
O         14.00959        15.77014        -2.64721
H         13.18214        15.84826        -3.18358
H          0.35705         1.51485        -0.30816
H          0.23536         3.93258         0.10143
H          2.51854         0.32167        -0.53545
H          0.28994         6.01557        -0.61127
H          0.20246         8.35408         0.07375
H          0.26305        10.18249         1.15996
H          0.28191        12.62683         1.05386
H          0.38162        14.50886         1.39116
H          0.55152        16.93243         1.73346
H          1.86904        19.01812         1.75288
H          5.02319         0.42048        -0.86871
H          4.02703        20.19881         1.46513
H          7.40688         0.50200        -1.19555
H          6.44127        20.10917         0.92138
H          9.89497         0.47192        -1.05991
H          8.73031        20.13711        -0.26493
H         12.27376         0.40940        -0.46407
H         11.06836        20.14720        -0.84481
H         14.73335         0.32768         0.01288
H         13.48288        20.20195        -1.00905
H         17.25328         0.28764         0.13612
H         15.93307        20.28081        -0.89600
H         19.72353         0.25019         0.36030
H         18.37036        20.37603        -0.47074
H         21.84558         1.48263         0.25100
H         23.09632         3.62965         0.01545
H         23.16226         6.09555         0.04208
H         23.16058         8.04298         0.74864
H         23.18598        10.46837         0.67764
H         23.15924        12.42205         0.51753
H         23.12413        14.83966         0.33109
H         23.07189        16.73676        -0.12230
H         20.84970        20.41732        -0.39523
H         22.96918        19.15334        -0.59723
