         238
 CSIRO Nanostructure Databank - Neutral Graphene Oxide Data Set
C        -11.26695         0.67317         0.27604
C        -10.06326         1.47413        -0.16241
C         -8.80897         0.65939         0.04706
C         -7.52464         1.39151        -0.02618
C         -6.30662         0.56610         0.16412
C         -5.04163         1.08660         0.62824
C         -3.81600         0.68770         0.15739
C         -2.56669         1.34349         0.60778
C         -1.29802         0.65213         0.24225
C         -0.04400         1.41894         0.34636
C          1.25250         0.65061         0.20968
C          2.42879         1.27859         0.93896
C          3.76178         0.55245         0.69785
C          5.06208         1.30752         0.73461
C          6.29647         0.70098         0.16709
C          7.49457         1.37675         0.17514
C          8.74251         0.73819        -0.15250
C          9.93344         1.45204         0.00403
C         11.19378         0.74453         0.02843
C         -9.95469         2.93206         0.26172
C         -8.76838         3.65235         0.14662
C         -7.49558         2.88920        -0.02773
C         -6.20099         3.65350         0.13002
C         -5.03211         3.14024         0.82524
C         -3.77514         3.69836         0.70749
C         -2.54976         2.89083         0.94355
C         -1.25876         3.60989         0.78139
C         -0.00487         2.79186         1.03878
C          1.29234         3.49753         0.67930
C          2.43633         2.77481         0.62441
C          3.72063         3.51722         0.54768
C          5.01923         2.80638         0.75463
C          6.25674         3.52471         0.43911
C          7.52978         2.78679         0.74509
C          8.76026         3.57616         0.36962
C          9.93248         2.88169         0.16860
C         -8.69524         5.08174         0.10098
C         -7.49794         5.85336        -0.02124
C         -6.17536         5.16542        -0.02793
C         -4.92703         5.84394         0.36799
C         -3.75061         5.12544         0.51003
C         -2.46555         5.82367         0.95055
C         -1.22417         4.96992         0.62639
C          0.02342         5.66784         0.32134
C          1.34123         5.02151         0.71644
C          2.50290         5.60117        -0.04749
C          3.73301         4.77672        -0.29824
C          5.00431         5.56796        -0.08798
C          6.21456         4.91774         0.24249
C          7.47035         5.67841         0.27332
C          8.68251         5.00303         0.34596
C         -7.48932         7.24196        -0.10228
C         -6.26044         8.03175         0.14123
C         -4.96796         7.31800         0.49765
C         -3.65116         8.05261         0.40737
C         -2.45387         7.17680         0.26408
C         -1.36357         7.49529        -0.47561
C         -0.05429         6.91495        -0.24951
C          1.14322         7.71344        -0.67577
C          2.44466         6.96174        -0.59676
C          3.74463         7.71591        -0.71042
C          5.03600         6.98907        -0.43500
C          6.24326         7.77763        -0.10494
C          7.41407         7.11095         0.19325
C         -6.12817         9.42020        -0.35548
C         -4.95938        10.09925        -0.37123
C         -3.65741         9.53466         0.07051
C         -2.38928        10.31081        -0.17688
C         -1.26813         9.73130        -0.68892
C          0.12080        10.10071        -0.52580
C          1.19453         9.22603        -0.57608
C          2.49730         9.83828        -0.43691
C          3.70560         9.17984        -0.50484
C          4.96023         9.86862        -0.34190
C          6.14998         9.21148        -0.16301
C        -11.26374        -0.68291         0.25936
C        -10.06149        -1.47108        -0.01057
C         -8.82695        -0.70393        -0.06941
C         -7.58776        -1.46239        -0.47690
C         -6.32450        -0.75329        -0.12001
C         -5.04723        -1.43223        -0.40697
C         -3.79441        -0.61410        -0.56344
C         -2.47087        -1.33240        -0.81807
C         -1.25288        -0.65654        -0.21057
C         -0.00665        -1.38363        -0.37207
C          1.21309        -0.80277        -0.02426
C          2.47012        -1.53983        -0.00766
C          3.74515        -0.83881         0.15520
C          4.93992        -1.42774        -0.20465
C          6.17424        -0.61195        -0.55990
C          7.46224        -1.42164        -0.58207
C          8.80670        -0.68668        -0.69543
C         10.03865        -1.42533        -0.13214
C         11.22003        -0.61430         0.08882
C        -10.04660        -2.85533        -0.12972
C         -8.82771        -3.64467        -0.18425
C         -7.56862        -2.88498         0.02084
C         -6.25010        -3.59005         0.15949
C         -4.92124        -2.82090         0.17088
C         -3.70042        -3.54008        -0.32559
C         -2.54881        -2.83774        -0.58515
C         -1.33275        -3.59411        -1.06723
C         -0.03373        -2.77609        -0.91198
C          1.25509        -3.55633        -0.85854
C          2.46204        -2.88847        -0.33204
C          3.70374        -3.65299        -0.37284
C          5.00193        -2.88543        -0.38988
C          6.12456        -3.51213        -1.19240
C          7.36907        -2.68841        -1.04897
C          9.14682        -3.73117        -0.30716
C         10.16243        -2.77648         0.09298
C         -8.74837        -5.01993        -0.19676
C         -7.48583        -5.75623        -0.16334
C         -6.22094        -5.04073        -0.08406
C         -4.98343        -5.67890        -0.18152
C         -3.72606        -4.98419        -0.26362
C         -2.48410        -5.68019        -0.30365
C         -1.27783        -5.00740        -0.51558
C         -0.02170        -5.71881        -0.46488
C          1.21646        -5.04137        -0.72394
C          2.41998        -5.73646        -0.64271
C          3.70238        -5.03188        -1.00917
C          4.97750        -5.73463        -0.59212
C          6.32243        -5.08384        -0.92725
C          7.42294        -5.54859         0.04855
C          8.64845        -4.80576         0.36417
C         -7.48852        -7.14440        -0.19691
C         -6.24401        -7.92182        -0.22489
C         -4.95300        -7.15996        -0.24028
C         -3.73935        -7.76260         0.43536
C         -2.48035        -7.19529        -0.23400
C         -1.22453        -7.74585         0.42830
C          0.01030        -7.09187        -0.12816
C          1.22346        -7.80499        -0.05459
C          2.44409        -7.10968        -0.27933
C          3.67977        -7.75083        -0.01529
C          4.91314        -6.97865        -0.04405
C          6.05257        -7.57807         0.73698
C          7.30585        -6.76107         0.65586
C         -6.17200        -9.32928         0.22881
C         -4.98649        -9.95783         0.45345
C         -3.70453        -9.27768         0.40796
C         -2.49679        -9.93694         0.43322
C         -1.21762        -9.25923         0.38089
C         -0.01089        -9.92003         0.36940
C          1.24840        -9.21333         0.24782
C          2.49043        -9.85758         0.34253
C          3.70825        -9.13654         0.25590
C          5.01507        -9.78735         0.35389
C          6.15257        -9.06676         0.47903
O          1.70574         7.13093        -1.90227
O          6.69702        -5.65576        -2.21212
O         -2.55320         5.92283         2.33875
O          3.94970        -6.14176        -3.06731
H          3.28206        -6.18139        -3.79518
O         -4.64167        -0.94016        -1.73939
O         -2.19715        -1.19586        -2.25306
H         -3.07566        -1.17834        -2.70314
O         -5.83126         7.82136         1.55224
O          3.67832        -4.82926        -2.48274
H          5.87161        -5.96379        -2.65810
O         -4.59823        -2.54681         1.57057
H         -5.44326        -2.59225         2.07924
O         -5.90275         4.28010        -1.16493
O         -5.18277         2.02696         1.65692
O        -10.17779         1.58973        -1.63067
H         -9.30352         1.93426        -1.94236
O         -2.45255        -7.67992        -1.59400
H         -3.33304        -7.52659        -2.00290
O          7.55846         2.63486         2.20293
H          7.35912         3.50743         2.60327
O          9.04354        -0.53747        -2.13370
H          9.12826        -1.44868        -2.49514
O          1.52780         5.35193         2.13623
H          0.92441         4.76639         2.64912
O          5.75399        -3.35549        -2.58037
H          6.35760        -3.94410        -3.09097
O         -1.54488        -3.79488        -2.49721
H         -1.51912        -2.89231        -2.89892
O         -7.63900        -1.58330        -1.92802
H         -7.53755        -0.68623        -2.31196
O          4.57544        -3.61848         0.80322
O         -3.85962        -7.32758         1.80719
H         -2.97125        -7.40501         2.23274
O          3.71634         4.31456        -1.69342
H          3.70923         5.11835        -2.26174
O         -7.03595        -3.15727         1.35213
O         -1.22864        -7.36708         1.84682
H         -0.42981        -7.75794         2.26045
O          0.00949         2.62512         2.47844
H         -0.87515         2.27112         2.74119
O          5.96032        -0.21158        -1.96148
H          6.84501        -0.02349        -2.35046
O          5.65467        -7.47138         2.15134
H          4.80717        -7.95479         2.25365
O          2.12767         1.10911         2.33814
H          2.95624         1.29723         2.83612
O          4.33882         3.52870         1.86905
O          0.72390         1.42186        -0.90631
O         -2.57997         1.86856         1.98360
O          8.51906        -3.34504        -1.51530
O          4.55239         7.26353        -1.83690
O         -5.40774        -7.73577        -1.48805
O         -7.46286         2.15109        -1.31385
O          4.58737         0.61785         1.93077
O          0.79457        -2.94548        -2.10929
O         -3.58952         9.06560         1.46415
O         -1.44346         8.53718        -1.41010
H         12.17071        -1.13816         0.27053
H         12.12010         1.32511         0.14631
H         10.88330         3.42231         0.04162
H          9.61892         5.57862         0.27852
H          8.33936         7.68300         0.36054
H          7.07038         9.79309        -0.00587
H          4.94096        10.96825        -0.31502
H          2.51484        10.93013        -0.28982
H          0.34480        11.15869        -0.31103
H         -2.30342        11.26421         0.36786
H         -4.94435        11.11630        -0.79280
H         -7.03370         9.89843        -0.76084
H         -8.44297         7.78667        -0.19236
H         -9.64495         5.63677         0.15891
H        -10.89928         3.49496         0.33935
H        -12.20092         1.21182         0.49874
H        -12.18993        -1.22899         0.49832
H        -11.00475        -3.39861        -0.10769
H         -9.67096        -5.61710        -0.26820
H         -8.44654        -7.68524        -0.15120
H         -7.11452        -9.88936         0.32665
H         -4.98692       -11.03101         0.70161
H         -2.48731       -11.03927         0.44527
H          0.01268       -11.01989         0.42070
H          2.52344       -10.94150         0.52955
H          5.05050       -10.88555         0.28676
H          7.12968        -9.56821         0.54265
H          8.12434        -7.09267         1.31532
H          9.17324        -5.12477         1.27777
H         11.08721        -3.14538         0.56753
