         430
 CSIRO Nanostructure Databank - Neutral Graphene Oxide Data Set
C         28.03121        27.44810        -0.99912
C         27.98197        28.83290        -0.70179
C         26.78052        29.59820        -0.85412
C         27.88258        31.66155        -0.13183
C         26.75121        30.96009        -0.61986
C         27.90801        33.07897         0.05102
C         26.70193        33.82817         0.00080
C         27.92256        35.93475         0.07638
C         26.70753        35.20507         0.03521
C         27.93203        37.37623         0.01319
C         26.73290        38.12154         0.00023
C         27.95417        40.21899        -0.20442
C         26.74517        39.50311        -0.09677
C         27.96298        41.66435        -0.36846
C         26.74864        42.39466        -0.54172
C         27.97719        44.47140        -0.81240
C         26.75268        43.74945        -0.77848
C         28.01675        45.86718        -1.07283
C         30.40833        27.38248        -0.45342
C         29.21340        26.73838        -0.83182
C         30.39876        28.79317        -0.22324
C         29.16085        29.48206        -0.25683
C         30.41103        31.63461         0.39902
C         29.08713        30.88254         0.16464
C         30.39916        33.10268         0.27302
C         29.15088        33.79131         0.19813
C         30.39391        35.93756         0.20501
C         29.15279        35.22104         0.15968
C         30.40953        37.36191         0.08269
C         29.17407        38.07645        -0.04340
C         30.43696        40.17365        -0.33392
C         29.18210        39.49687        -0.16892
C         30.45544        41.63107        -0.39506
C         29.18819        42.35350        -0.39192
C         30.41766        44.49934        -0.54078
C         29.19706        43.77473        -0.57497
C         30.44150        45.87265        -0.80732
C         29.21681        46.54281        -1.09508
C         32.82374        24.56241         0.24458
C         31.63857        25.24777        -0.00691
C         32.87842        27.33010        -0.17206
C         31.64905        26.63851        -0.23238
C         32.89564        28.80354        -0.49445
C         31.63398        29.51673        -0.07109
C         32.88980        31.63325         0.16394
C         31.66371        30.90008         0.13576
C         32.88124        33.06609         0.33871
C         31.61887        33.79801         0.30752
C         32.82821        35.96428         0.56040
C         31.62540        35.23298         0.32923
C         32.83882        37.36469         0.50329
C         31.65092        38.06470         0.06985
C         32.84585        40.15227        -0.85869
C         31.64001        39.45175        -0.31717
C         32.96475        41.69255        -0.72675
C         31.64312        42.32656        -0.38246
C         32.94366        44.47106        -0.40427
C         31.64715        43.79094        -0.04034
C         32.94780        45.82291        -0.72435
C         31.72308        46.57851        -0.82533
C         33.02895        48.65397        -0.84708
C         31.79055        47.96309        -0.90250
C         35.36173        23.05804         0.11036
C         35.32353        24.47941         0.60727
C         34.05616        25.22785         0.25674
C         35.34878        27.35108         0.09773
C         34.08609        26.62958         0.05737
C         35.35354        28.77407         0.07054
C         34.14279        29.50592        -0.04335
C         35.37115        31.59131         0.34165
C         34.12942        30.89931         0.15215
C         35.32615        33.02718         0.69171
C         34.06573        33.76512         0.56071
C         35.34963        35.95899         0.70920
C         34.05971        35.21217         1.01441
C         35.32718        37.37524         0.73339
C         34.07688        38.08037         0.81297
C         35.30469        40.23447         0.83695
C         34.11495        39.46464         1.07206
C         35.26583        41.64601         0.58215
C         34.13673        42.34010         0.07039
C         35.37141        44.54350         0.00465
C         34.15262        43.75931        -0.09909
C         35.44024        45.83715        -0.44251
C         34.24761        46.49908        -1.09131
C         35.50135        48.71755        -0.77894
C         34.23958        47.99946        -0.88535
C         35.52964        50.13761        -0.88174
C         37.80975        23.07831         0.12154
C         36.53817        22.40341        -0.02320
C         37.81096        24.50758         0.17077
C         36.59048        25.22101         0.24964
C         37.82277        27.36149         0.17692
C         36.57869        26.63822         0.17006
C         37.81267        28.76693         0.24557
C         36.59712        29.48559         0.18459
C         37.86346        31.66812        -0.04901
C         36.58475        30.91447         0.25065
C         37.88370        33.10483         0.42409
C         36.62729        33.80019         0.74929
C         37.80444        35.97240         0.49807
C         36.58669        35.27530         0.64106
C         37.81318        37.40529         0.64049
C         36.56052        38.10833         0.82055
C         37.78826        40.24933         1.11397
C         36.54005        39.51679         0.87963
C         37.82514        41.71674         0.95357
C         36.51734        42.41509         0.87459
C         37.87423        44.55350         0.45786
C         36.56278        43.89417         0.59016
C         37.91870        45.91935         0.10264
C         36.76714        46.53194        -0.65143
C         37.92110        48.76119        -0.34649
C         36.71103        48.03796        -0.53821
C         37.93176        50.17942        -0.48502
C         36.70751        50.84002        -0.76715
C         40.24445        20.23894         0.32714
C         39.06540        20.93174         0.25768
C         40.27778        23.06712         0.04941
C         39.04172        22.36106         0.13310
C         40.28431        24.49790        -0.04378
C         39.05911        25.22088         0.07651
C         40.30728        27.34212        -0.01449
C         39.06915        26.63842         0.12106
C         40.32016        28.77635         0.00527
C         39.09620        29.46723         0.60202
C         40.38791        31.65510         0.51327
C         39.09969        30.94261         0.37079
C         40.33742        33.13795         0.24305
C         39.07038        33.82302         0.37632
C         40.26206        35.96551         0.18714
C         39.06166        35.27103         0.37821
C         40.22304        37.44746        -0.07455
C         39.02275        38.09252         0.55387
C         40.33606        40.24513         0.74797
C         39.10928        39.47915         0.96546
C         40.33897        41.67677         1.21867
C         39.02179        42.40015         0.94088
C         40.29867        44.53470         0.71320
C         39.05767        43.83792         0.74684
C         40.30480        45.95199         0.60585
C         39.09897        46.65260         0.28321
C         40.29532        48.81698         0.33209
C         39.13168        48.08809         0.05817
C         40.34418        50.21784         0.06694
C         39.17382        50.89915        -0.36282
C         40.43903        52.96985        -0.60650
C         39.25039        52.29196        -0.67466
C         42.72570        20.21737         0.31910
C         41.49810        20.92058         0.25267
C         42.76165        23.00647        -0.02198
C         41.51457        22.33488         0.09205
C         42.75817        24.43422        -0.39954
C         41.50398        25.21031        -0.25771
C         42.75983        27.38721        -0.43658
C         41.50773        26.61529        -0.27802
C         42.75733        28.84015        -0.14768
C         41.48993        29.50330        -0.19953
C         42.77128        31.67358        -0.27358
C         41.45420        30.98028        -0.43767
C         42.74522        33.15399        -0.52871
C         41.50071        33.83988         0.00653
C         42.73006        35.99470        -0.05279
C         41.50286        35.28146         0.01431
C         42.73380        37.43284         0.11241
C         41.52607        38.14539         0.22655
C         42.77653        40.27700         0.43907
C         41.52763        39.56069         0.46285
C         42.78055        41.71157         0.52023
C         41.56897        42.41864         0.75674
C         42.76505        44.55703         0.55759
C         41.55066        43.82441         0.71545
C         42.74904        45.98019         0.65379
C         41.52492        46.67270         0.73315
C         42.77765        48.90511         1.23033
C         41.40748        48.13185         1.11319
C         42.78966        50.28515         0.58297
C         41.59301        50.93323         0.17223
C         42.86509        53.00738        -0.15485
C         41.63694        52.30789        -0.19991
C         43.92947        20.89063         0.26023
C         45.25320        23.02318         0.16075
C         43.97930        22.30164         0.09191
C         45.27664        24.43692         0.08564
C         44.08975        25.16507        -0.40395
C         45.22595        27.37503         0.18260
C         44.10002        26.66665        -0.41312
C         45.14249        28.82116         0.60748
C         43.93505        29.54448         0.06016
C         45.22190        31.69381         0.06693
C         43.94348        30.99099         0.00744
C         45.22707        33.13528        -0.05253
C         44.01379        33.86448        -0.16400
C         45.21393        36.00309        -0.08316
C         43.98967        35.28257        -0.10658
C         45.21559        37.43788         0.00053
C         43.98229        38.13989         0.16527
C         45.23077        40.27934         0.22193
C         43.99274        39.56497         0.27639
C         45.23359        41.70825         0.17728
C         43.99412        42.42544         0.30627
C         45.18614        44.59038         0.10839
C         43.99399        43.86195         0.33273
C         45.19336        46.00746         0.25182
C         43.98690        46.70887         0.57915
C         45.21910        48.79340         0.76171
C         43.99609        48.11509         0.75725
C         45.27400        50.28864         1.04511
C         44.00544        50.98434         0.56926
C         44.02513        52.35225         0.21114
C         47.65227        23.07070         0.61416
C         46.47034        22.36506         0.45313
C         47.67001        24.48427         0.61283
C         46.44251        25.15768         0.42215
C         47.68371        27.41034         0.85908
C         46.35532        26.61309         0.65153
C         47.66030        28.86421         0.54836
C         46.46343        29.54969         0.40788
C         47.69040        31.69164         0.15173
C         46.43669        30.98593         0.20477
C         47.69443        33.11830        -0.02974
C         46.45933        33.84060        -0.07417
C         47.66104        35.98193        -0.33554
C         46.46656        35.28724        -0.16861
C         47.66950        37.46729        -0.57939
C         46.43234        38.15865        -0.06948
C         47.70648        40.28181         0.10063
C         46.45854        39.56706         0.07849
C         47.69949        41.72524         0.07106
C         46.45099        42.40478        -0.00087
C         47.70925        44.59532        -0.38854
C         46.37669        43.83746        -0.46169
C         47.69323        46.07630        -0.11750
C         46.42080        46.73961         0.23450
C         47.69873        48.78890         1.05554
C         46.43308        48.07847         0.62206
C         47.68636        50.17933         0.45516
C         46.54456        50.87658         0.46279
C         50.16479        24.57415         0.43195
C         48.91638        25.25235         0.66282
C         50.22686        27.38076         0.82212
C         48.91298        26.64254         0.70574
C         50.13862        28.85659         0.50949
C         48.94416        29.54573         0.41691
C         50.14888        31.70456         0.11073
C         48.92290        30.99367         0.22771
C         50.14622        33.12442        -0.07899
C         48.91810        33.81231        -0.16261
C         50.17149        35.99214        -0.22592
C         48.93039        35.24145        -0.64167
C         50.12971        37.40837        -0.05334
C         48.94872        38.13620        -0.13275
C         50.16696        40.25992         0.24275
C         48.93694        39.56087         0.09626
C         50.15064        41.71501         0.60956
C         48.91999        42.45319         0.14421
C         50.16484        44.58139         0.04605
C         48.97635        43.87046        -0.05140
C         50.23019        46.07425        -0.22925
C         48.95751        46.75543         0.20737
C         50.19864        48.63388         1.12099
C         48.96971        48.02522         0.75913
C         51.29903        25.26449         0.06471
C         52.45980        27.40653        -0.40589
C         51.34784        26.68230         0.07979
C         52.56815        28.82287        -0.18279
C         51.46907        29.57045         0.54582
C         52.58702        31.69667        -0.11824
C         51.40309        31.01614         0.12205
C         52.61064        33.12737        -0.19856
C         51.38424        33.84831        -0.14339
C         52.63423        36.00972        -0.03078
C         51.37763        35.28596        -0.11128
C         52.65464        37.38701         0.02319
C         51.39106        38.09745         0.42416
C         52.62261        40.27841         0.07004
C         51.40044        39.58192         0.18616
C         52.61606        41.72981         0.07221
C         51.43950        42.42627         0.30091
C         52.68832        44.60406         0.11874
C         51.42643        43.90854         0.56091
C         52.71304        46.00826         0.13928
C         51.46767        46.71060         0.35091
C         51.41475        47.96336         0.95076
C         54.63767        27.44829        -1.52222
C         53.53356        26.75586        -1.10311
C         54.77470        28.84534        -1.24862
C         53.71218        29.51093        -0.54888
C         55.00280        31.67720        -0.81842
C         53.89905        30.94183        -0.09505
C         55.04006        33.11377        -0.66823
C         53.85436        33.80713        -0.30773
C         55.10957        35.99598        -0.47385
C         53.92964        35.25267         0.09271
C         55.09289        37.43542        -0.42610
C         53.88510        38.13552        -0.13067
C         55.07304        40.28626        -0.34277
C         53.86564        39.56292        -0.11069
C         55.07397        41.73807        -0.33008
C         53.87151        42.44068        -0.11914
C         55.09943        44.58487        -0.32161
C         53.87930        43.87397        -0.10565
C         55.10490        46.00611        -0.28621
C         53.94159        46.70379        -0.05364
C         55.89175        29.57217        -1.68717
C         55.97459        30.96715        -1.50629
C         56.21264        33.86220        -0.94340
C         56.22333        35.26070        -0.88481
C         56.27122        38.18661        -0.66683
C         56.26160        39.56541        -0.61113
C         56.28011        42.47436        -0.53805
C         56.29506        43.84931        -0.54038
O         29.63139        31.12628         1.51680
O         43.52986        24.63279        -1.64143
O         43.53840        27.18373        -1.67528
O         35.99973        33.29957         2.01021
O         33.62311        39.58618        -1.62386
O         36.32636        43.39425         1.96037
O         43.03322        49.14065         2.61814
O         47.77681        45.52612        -1.52424
O         38.50048        39.75500         2.29952
O         46.85228        27.00527         1.99903
O         51.89595        29.61132         1.97716
H         51.23862        30.16179         2.45639
O         40.46219        41.63294         2.68447
H         39.73997        41.03421         2.99935
O         51.38632        44.07930         2.02399
H         50.78391        43.37107         2.37129
O         46.04682        43.71569        -1.88703
H         46.40560        44.52613        -2.32224
O         54.32043        30.88189         1.31072
H         53.61471        30.38265         1.79320
O         47.62723        37.65965        -2.04558
H         46.81017        37.22786        -2.37378
O         50.36591        46.26048        -1.68570
H         49.49707        45.99302        -2.07558
O         50.56595        27.27320         2.25380
H         51.33131        27.87999         2.40734
O         42.61777        33.33334        -1.99087
H         41.84482        32.77419        -2.25937
O         40.93934        31.21597        -1.78302
H         41.32261        30.53806        -2.37860
O         54.17530        35.20855         1.56950
H         54.96564        34.64222         1.70781
O         44.89717        28.82044         2.06464
H         45.61725        28.26630         2.46230
O         33.24664        42.09875        -2.10530
H         33.72804        41.33997        -2.51582
O         49.01362        35.14091        -2.11780
H         48.19891        34.68857        -2.42375
O         37.09866        46.27220        -2.06733
H         36.27395        46.46245        -2.58354
O         33.98884        35.14369         2.48064
H         34.72205        34.54112         2.76079
O         50.03928        41.71118         2.11638
H         50.61121        40.98099         2.44294
O         33.04640        40.09324         1.63659
H         33.27439        41.02386         1.84692
O         51.35454        37.98120         1.90538
H         51.65866        37.07582         2.13487
O         34.41115        46.30561        -2.55929
H         34.19468        45.36648        -2.74922
O         37.88026        31.74749        -1.53675
H         37.00079        32.06961        -1.82864
O         40.03289        37.58594        -1.54379
H         40.75091        37.07446        -1.97545
O         47.63015        48.91517         2.49944
H         46.82700        49.46942         2.71082
O         40.93884        31.45183         1.85661
H         40.43362        32.02164         2.47527
O         40.87035        48.03055         2.46201
H         41.58588        48.45107         3.03401
O         39.27559        29.24225         2.05098
H         40.06255        29.78011         2.31421
O         35.32011        24.39279         2.08329
H         36.15499        23.95109         2.34847
O         32.91575        28.88766        -1.97896
H         32.13341        28.39033        -2.30139
O         31.57460        43.84267         1.43631
H         31.53217        44.78859         1.69331
O         45.33510        50.42101         2.49522
H         44.47527        49.98689         2.81210
H         27.12005        26.93515        -1.33723
H         25.87457        29.08902        -1.21289
H         25.81990        31.50647        -0.82328
H         25.73842        33.30440        -0.05244
H         25.74585        35.73255        -0.00063
H         25.76273        37.61440         0.07726
H         25.78413        40.03287        -0.09410
H         25.78569        41.86806        -0.52308
H         25.80727        44.28637        -0.94191
H         27.07673        46.40218        -1.27047
H         29.21876        25.65839        -1.03463
H         29.22115        47.61577        -1.32885
H         32.77493        23.48476         0.45102
H         30.68847        24.69662         0.00216
H         32.98874        49.74656        -0.74169
H         30.87123        48.56298        -0.92234
H         34.42123        22.50802        -0.03378
H         34.60592        50.69168        -1.09346
H         36.52992        21.34164        -0.30791
H         36.67951        51.93196        -0.87616
H         40.23983        19.14573         0.44517
H         38.11831        20.38096         0.33291
H         40.48596        54.03547        -0.87437
H         38.35144        52.82916        -1.00428
H         42.71130        19.12371         0.43097
H         42.88755        54.07552        -0.41427
H         44.86020        20.31279         0.33162
H         44.96158        52.92412         0.25288
H         48.57656        22.50645         0.79429
H         46.50301        21.27034         0.52872
H         48.61345        50.61179         0.04779
H         46.53738        51.89698         0.05371
H         50.19184        23.47711         0.41590
H         50.18193        49.62391         1.59647
H         52.17962        24.68896        -0.25337
H         52.33993        48.42669         1.32345
H         55.44124        26.93267        -2.06792
H         53.46399        25.68185        -1.32093
H         56.05224        46.54047        -0.44732
H         53.94793        47.80273        -0.04624
H         56.68668        29.05231        -2.24077
H         56.81655        31.49977        -1.97169
H         57.13241        33.34262        -1.24311
H         57.14202        35.77762        -1.19605
H         57.21867        37.67433        -0.87944
H         57.20410        40.09683        -0.79230
H         57.22697        41.94389        -0.70018
H         57.23738        44.39203        -0.70238
