         261
 CSIRO Nanostructure Databank - Neutral Graphene Oxide Data Set
C        -11.27459         0.66512         0.11402
C        -10.22445         1.64821         0.60839
C         -8.86360         0.91800         0.79474
C         -7.63466         1.54494         0.17675
C         -6.30497         0.77444         0.10423
C         -5.07738         1.49560        -0.36262
C         -3.73860         0.83230        -0.23454
C         -2.53549         1.46296        -0.88003
C         -1.23831         0.73400        -0.59183
C         -0.06598         1.46661        -0.01276
C          1.23160         0.70165         0.19723
C          2.52383         1.45399         0.15818
C          3.80378         0.66016         0.06099
C          5.07508         1.41815         0.01397
C          6.31235         0.83678        -0.61210
C          7.58666         1.58701        -0.35690
C          8.90255         0.84407        -0.36177
C         10.06270         1.52857         0.32481
C         10.99506         0.68217         1.10673
C        -10.21552         3.00307        -0.17479
C         -8.91676         3.79778        -0.04577
C         -7.69791         2.97827        -0.29018
C         -6.40241         3.72745        -0.45828
C         -5.09752         2.99633        -0.47971
C         -3.85834         3.67902        -1.01802
C         -2.54150         2.93585        -1.09875
C         -1.43188         3.68745        -0.36197
C         -0.07451         2.96209        -0.14205
C          1.22282         3.61160        -0.58937
C          2.52656         2.84154        -0.46767
C          3.83351         3.57483        -0.67357
C          4.98408         2.92523         0.04937
C          6.23588         3.63383         0.39437
C          7.46456         2.73913         0.69684
C          8.73106         3.57013         0.83376
C          9.92588         2.95293         0.75986
C         -8.85979         5.16044         0.03237
C         -7.65336         5.94896        -0.27269
C         -6.61521         5.13717        -1.02970
C         -4.94182         5.95417        -0.36736
C         -3.79689         5.16392        -0.89912
C         -2.49978         5.95050        -0.95572
C         -1.26205         5.18601        -0.60182
C          0.04822         5.89280        -0.57561
C          1.30417         5.09126        -0.82241
C          2.61915         5.85129        -0.95086
C          3.95069         5.06835        -1.15185
C          5.21720         5.81969        -0.60211
C          6.39341         5.07521         0.01304
C          7.44153         5.78552         0.79979
C          8.55640         4.95749         1.43213
C         -7.52948         7.30010        -0.14035
C         -6.34968         8.08719        -0.73301
C         -5.03623         7.39743        -0.42082
C         -3.69174         8.09499        -0.15446
C         -2.48710         7.44624        -0.85003
C         -1.17415         8.18071        -0.65204
C          0.09522         7.40420        -0.63939
C          1.35227         7.70192         0.16643
C          2.60738         7.31922        -0.59550
C          3.87279         8.10614        -0.41098
C          5.18023         7.33395        -0.37779
C          6.32475         7.97440         0.39487
C          7.39907         7.12496         0.96160
C         -6.23820         9.55257        -0.36472
C         -5.06112        10.21727        -0.28369
C         -3.73468         9.59556        -0.28964
C         -2.55208        10.26569        -0.24992
C         -1.23579         9.54704         0.05639
C          0.00402        10.35412        -0.33473
C          1.25620        10.10376         0.03436
C          2.47955        10.20657         0.54738
C          3.76261         9.51494         0.16925
C          4.94561         9.98360         0.93604
C          6.08201         9.27395         1.06468
C        -11.16870        -0.67452         0.13510
C         -9.88837        -1.44637         0.36076
C         -8.79456        -0.57669         0.95798
C         -7.45275        -1.27037         1.14688
C         -6.17313        -0.54485         0.83629
C         -4.88354        -1.33083         0.71075
C         -3.69925        -0.61640         0.11770
C         -2.60116        -1.44324        -0.48153
C         -1.26476        -0.75468        -0.57624
C         -0.07007        -1.53803        -0.11923
C          1.20184        -0.80727         0.17062
C          2.52923        -1.54672         0.08035
C          3.73413        -0.76305        -0.40461
C          4.99602        -1.41594        -0.89980
C          6.31246        -0.64371        -0.96300
C          7.61824        -1.39667        -0.85961
C          8.88362        -0.66596        -0.46364
C          9.93595        -1.46079         0.40850
C         10.87987        -0.65625         1.21535
C        -10.01202        -2.78998         1.12314
C         -8.69005        -3.55594         1.09690
C         -7.45113        -2.77201         1.38792
C         -6.13225        -3.51041         1.38212
C         -4.86085        -2.82437         0.92287
C         -3.85079        -3.66233         0.15139
C         -2.65210        -2.93583        -0.43936
C         -1.36217        -3.69231        -0.71615
C         -0.03352        -2.94184        -0.67787
C          1.27516        -3.68694        -0.65436
C          2.53541        -3.02326        -0.14329
C          3.87041        -3.70015        -0.41667
C          5.10485        -2.92100        -0.76646
C          6.37602        -3.64915        -1.15064
C          7.65159        -2.91286        -0.81846
C          8.71055        -3.64762         0.01908
C          9.55891        -2.78802         0.83252
C         -8.64078        -4.89419         0.86195
C         -7.42775        -5.73291         1.08403
C         -6.13575        -5.01667         1.38534
C         -4.77095        -5.70775         1.39942
C         -3.84391        -5.16467         0.28628
C         -2.53230        -5.90162         0.03523
C         -1.35371        -5.18723        -0.58384
C         -0.03550        -5.94160        -0.67667
C          1.25839        -5.19118        -0.75695
C          2.53374        -5.94265        -0.51378
C          3.82861        -5.20085        -0.52394
C          5.05039        -5.89107        -1.03983
C          6.36536        -5.14525        -1.03568
C          7.48433        -5.88737        -0.38174
C          8.46532        -5.09201         0.47810
C         -7.33806        -7.14992         0.64526
C         -6.21388        -7.88814         0.87764
C         -5.02410        -7.24935         1.54909
C         -3.74994        -8.17716        -0.39030
C         -2.50322        -7.39338        -0.08001
C         -1.26806        -8.13775        -0.47762
C          0.00306        -7.38607        -0.25840
C          1.28646        -8.14812        -0.22879
C          2.49657        -7.43004        -0.76167
C          3.78452        -8.16328        -0.87934
C          5.05673        -7.38126        -1.15726
C          6.42245        -8.07903        -1.12669
C          7.43833        -7.24024        -0.33378
C         -6.15609        -9.34308         0.65770
C         -5.05326       -10.11261         0.42622
C         -3.73555        -9.58996         0.07315
C         -2.54449       -10.26836         0.08957
C         -1.26897        -9.63558        -0.36193
C          0.06806       -10.30856        -0.26880
C          1.25121        -9.64195        -0.32315
C          2.59043       -10.37341        -0.51472
C          3.82773        -9.49090        -0.14573
C          5.17538       -10.15877        -0.31817
C          6.30697        -9.51032        -0.63596
O         -2.24470        -6.72968         1.19580
O          2.60489        -2.46752         1.20026
O          2.88278        -8.04204        -2.02796
O         -4.32950        -7.89639         2.30846
O          0.78471        -3.03903        -1.87159
O          1.34903         7.71553         1.38730
O         -5.58658         3.64191         0.74807
O          0.69595        -7.62135         1.00278
O          2.39694         6.88781        -1.95948
O          5.16761         3.47883         1.38457
O         -2.48227         2.03911        -2.22386
O         -0.63488         5.62868         0.68307
O         -5.06318         6.45069         0.87972
O         -7.97814         1.89725        -1.22209
O         -2.54540         6.80479        -2.14395
O         -0.28180         8.12180        -1.82017
O         -4.36568        -1.94075         1.94729
O         -6.53838         5.31741        -2.27721
O          0.61928        -5.70630        -1.95561
O          6.52091        -4.46484        -2.33358
O          1.08345         4.16151        -1.93405
O          7.33466         2.08759         1.91900
O         -5.87952         0.70983        -1.29436
O         -6.69437        -0.54764         2.17145
O         -6.72024        -3.03979         2.62186
O         -1.61226        -4.55245        -1.86201
O          6.37230         5.40897        -1.39415
O          4.84309        -3.31961         0.62280
O          4.65088         0.78251         1.24701
O          4.86651        -6.54538        -2.33534
O         -4.50966        -4.54698        -0.82658
O          3.94312         9.28521        -1.25708
O          7.08328        -0.93683        -2.15018
O         -3.28721         0.40712         1.08626
O          3.98242        -0.94930        -1.83531
O         -6.93305        -5.56133         2.47190
O          3.25292        -5.70759         0.73240
O         -0.20794         2.32390         1.15097
O         -4.63923        -7.68341        -1.06783
O         -3.03105        -2.17884        -1.64755
O         10.00596         1.39396        -1.13463
O          0.34873        -1.35433         1.24485
O         -8.94226         0.29938         2.11655
O         -1.38672        -8.92718        -1.67687
O         -4.09196         4.52562        -2.17259
O         -0.91200        -0.04374        -1.79527
O         -3.55916         7.72797         1.21209
O          3.27028         2.74285        -1.72345
O          6.25041         8.01955        -1.06744
O         10.04873        -1.23906        -1.04095
O          6.89325         1.72825        -1.61192
O          8.82313        -3.48351        -1.42504
O          1.87553         1.22527         1.41475
O        -10.47065         2.80262        -1.56491
H         -9.65725         2.43256        -1.97764
O         -9.37826        -1.82004        -0.95282
H         -9.53543        -1.08219        -1.57945
O        -10.66954         2.06350         1.91937
H        -10.46627         1.33181         2.54748
O          7.97921        -5.06097         1.82829
H          7.02790        -4.82482         1.83547
O          3.70945        -9.14097         1.25791
H          3.88175        -9.93880         1.79983
O          6.92261        -8.16374        -2.47502
H          6.51594        -7.42414        -2.98512
O         -2.12381         3.67570         0.92510
H         -1.55227         4.12005         1.59316
O          4.16872         5.01052        -2.55586
H          3.45660         4.46771        -2.95890
O         -6.48760         8.05377        -2.17205
H         -6.56327         7.10470        -2.46558
O          9.78083         5.68286         1.40727
H          9.97179         5.93902         0.48151
O          2.69256       -10.81269        -1.86577
H          2.64823       -10.01863        -2.44603
O         -4.11754        -5.27997         2.60583
H         -4.63516        -5.61017         3.37095
O         -1.23109         9.29730         1.47169
H         -2.02706         8.74497         1.68683
O        -10.37402        -2.55056         2.48179
H         -9.60573        -2.17073         2.95800
H         11.53690        -1.20640         1.90522
H         11.72834         1.20535         1.73873
H         10.85002         3.50562         0.99363
H          8.29283         4.79664         2.51433
H          8.18010         7.61967         1.56052
H          6.88837         9.66001         1.70719
H          4.84197        10.93093         1.48719
H          2.58525        10.89632         1.40788
H         -0.15355        11.12436        -1.11348
H         -2.54798        11.36683        -0.28453
H         -5.08513        11.30830        -0.13371
H         -7.17630        10.12520        -0.31006
H         -8.34595         7.87646         0.32428
H         -9.78963         5.72195         0.21915
H        -11.06415         3.60835         0.22662
H        -12.25215         1.10690        -0.13494
H        -12.04222        -1.27878        -0.15896
H        -10.81955        -3.40795         0.65916
H         -9.57227        -5.42376         0.60426
H         -8.22154        -7.61129         0.17707
H         -7.11817        -9.87003         0.76848
H         -5.17756       -11.20688         0.41951
H         -2.50658       -11.31082         0.44318
H          0.07326       -11.41037        -0.28725
H          2.60520       -11.28829         0.13373
H          5.23456       -11.22578        -0.04808
H          7.24684       -10.08373        -0.67087
H          8.22613        -7.78109         0.21481
H          9.44973        -5.62187         0.50274
H          9.79244        -3.10787         1.85873
