         621
 CSIRO Nanostructure Databank - Neutral Graphene Oxide Data Set
C          5.94027        31.84808        -1.08630
C          5.88126        33.16301        -0.80922
C          8.37584        27.44486        -0.86268
C          8.34295        28.87841        -0.76746
C          7.20499        29.60051        -1.09681
C          8.39987        31.73166        -0.59191
C          7.23855        31.09316        -1.29845
C          8.35767        33.18630        -0.32537
C          7.08668        33.96258        -0.45269
C          8.35054        36.13253        -0.43640
C          7.16585        35.43386        -0.60414
C          8.41855        37.55821        -0.31571
C         10.83491        23.15179        -0.69857
C         10.79943        24.54490        -0.47897
C          9.59177        25.29245        -0.66784
C         10.65352        27.39523         0.10764
C          9.51321        26.69232        -0.52810
C         10.69524        28.87768         0.03757
C          9.56334        29.57925        -0.35729
C         10.75149        31.74223         0.14155
C          9.54942        31.02992        -0.29470
C         10.82376        33.12329         0.02645
C          9.66259        33.89805        -0.44527
C         10.86889        36.13107        -0.02018
C          9.65455        35.41148        -0.44866
C         10.86108        37.50992         0.14737
C          9.61731        38.24146        -0.05812
C         10.85456        40.39559         0.19184
C          9.66724        39.65830         0.05407
C         10.69559        41.82669         0.31320
C         13.40220        18.90212        -0.81547
C         13.33727        20.31722        -0.76417
C         12.10742        21.01569        -0.78723
C         13.28572        23.15458        -0.53226
C         12.05466        22.42610        -0.66068
C         13.26279        24.55972        -0.26027
C         12.02533        25.22076        -0.13667
C         13.19444        27.36623         0.62508
C         11.92638        26.60636         0.36787
C         13.17478        28.85949         0.64410
C         11.89519        29.58846         0.39913
C         13.14976        31.65850         0.97606
C         11.91985        30.96921         0.48804
C         13.15810        33.14948         1.02532
C         12.08270        33.84617         0.24724
C         13.22469        36.02665         0.88112
C         12.10299        35.34926         0.17022
C         13.24236        37.51179         0.93896
C         12.06303        38.26422         0.45292
C         13.41529        40.29587         0.61845
C         12.11778        39.65585         0.36718
C         13.63802        41.66656         0.23300
C         11.67260        42.77007        -0.01377
C         12.88778        44.93306         0.10514
C         11.71149        44.15337         0.28381
C         13.14344        46.22544         0.56489
C         15.84332        14.63151        -0.98242
C         15.84332        16.06367        -1.05499
C         14.63627        16.77602        -0.92616
C         15.88660        18.87973        -0.82195
C         14.63272        18.18640        -0.86189
C         15.85281        20.33410        -0.59364
C         14.56401        21.06517        -0.69712
C         15.76856        23.24732        -0.77344
C         14.52532        22.45454        -0.61103
C         15.74722        24.66315        -0.34458
C         14.53120        25.25470        -0.05331
C         15.76360        27.45296         0.25923
C         14.50723        26.64894         0.44072
C         15.73283        28.93441         0.05119
C         14.38137        29.65074         0.13361
C         15.77145        31.75096         0.85732
C         14.49059        30.98031         0.85512
C         15.75463        33.11279         1.18427
C         14.46906        33.84663         1.21937
C         15.77476        36.02844         1.26894
C         14.53497        35.29706         0.87137
C         15.68977        37.47581         1.50718
C         14.54143        38.17558         1.19056
C         15.77978        40.29850         1.44566
C         14.53836        39.60906         1.11466
C         15.69415        41.77574         1.55671
C         14.68016        42.42446         0.71919
C         15.77640        44.64924         0.90498
C         14.85194        43.81363         0.36370
C         15.73451        46.09339         0.50771
C         14.44380        46.85819         0.50753
C         15.72944        49.00086         0.52918
C         14.50591        48.24436         0.46428
C         15.73190        50.41192         0.26523
C         18.22489        10.34864        -0.65351
C         18.24707        11.75480        -0.78182
C         17.04108        12.48148        -0.81262
C         18.26863        14.53664        -1.45613
C         17.01304        13.87789        -1.03440
C         18.27897        16.05938        -1.57638
C         17.06876        16.79131        -1.18018
C         18.40858        18.90867        -1.04359
C         17.11160        18.19597        -0.99285
C         18.42973        20.35697        -0.91627
C         17.15015        21.08111        -0.68275
C         18.35490        23.31513        -0.77544
C         17.07801        22.55318        -0.96097
C         18.28830        24.67045        -0.20795
C         17.01406        25.37152        -0.17775
C         18.22168        27.47572         0.42541
C         17.02030        26.74525        -0.03375
C         18.37040        28.94833         0.08005
C         17.03249        29.70087         0.14018
C         18.23578        31.76059         0.95877
C         17.01805        31.09985         0.63848
C         18.22785        33.13446         1.33344
C         16.97626        33.84754         1.36901
C         18.18332        35.93430         2.02584
C         16.95014        35.23342         1.64670
C         18.15898        37.42833         2.27083
C         16.80625        38.17425         2.25999
C         18.13261        40.35666         2.33541
C         16.90083        39.62673         1.86053
C         18.13604        41.82537         1.94428
C         16.90020        42.60501         1.98484
C         18.19494        44.78387         1.49229
C         16.85756        44.15878         1.85434
C         18.25525        46.17133         1.17747
C         17.01703        46.87702         0.71393
C         18.13686        49.11382         1.12305
C         16.93519        48.34052         0.81483
C         18.16535        50.59511         0.71273
C         16.90334        51.16665         0.19535
C         18.11830        53.23578        -0.40987
C         16.92462        52.52020        -0.23626
C         18.10416        54.62304        -0.70892
C         20.66493         6.05021        -0.52438
C         20.66612         7.45131        -0.34016
C         19.43892         8.19967        -0.42850
C         20.63871        10.35262        -0.15867
C         19.40397         9.59252        -0.45209
C         20.75125        11.75352        -0.60832
C         19.52345        12.46790        -0.91335
C         20.81915        14.49782        -1.54521
C         19.53843        13.80624        -1.27617
C         20.86683        16.01126        -1.64736
C         19.58822        16.80522        -1.62485
C         20.90178        19.03112        -1.53704
C         19.60453        18.24228        -1.25595
C         20.89757        20.37539        -0.82680
C         19.62860        21.05198        -0.81609
C         20.77844        23.16932         0.00639
C         19.64001        22.53165        -0.67184
C         20.68625        24.51900         0.34135
C         19.46153        25.26950         0.22919
C         20.74258        27.42649         0.78261
C         19.46124        26.68620         0.67153
C         20.72446        28.88742         0.89319
C         19.52318        29.62566         0.78086
C         20.70570        31.71676         1.29011
C         19.49664        31.02568         0.98632
C         20.71567        33.16158         1.47543
C         19.46405        33.85260         1.53870
C         20.66579        36.00078         1.80998
C         19.46551        35.25461         1.76179
C         20.64874        37.45120         1.87418
C         19.42715        38.17656         2.04965
C         20.63272        40.27189         1.78559
C         19.42120        39.58686         2.02576
C         20.58083        41.72785         1.51240
C         19.39223        42.52033         1.96485
C         20.72126        44.72795         1.56022
C         19.40319        44.06048         1.83241
C         20.74739        46.21645         1.47225
C         19.44140        46.90730         1.29090
C         20.70746        49.14385         0.92285
C         19.43757        48.38610         1.27081
C         20.64683        50.53266         0.40369
C         19.45799        51.23134         0.32935
C         20.56496        53.19710        -0.69624
C         19.41494        52.56783        -0.24945
C         20.47040        54.49525        -1.41233
C         19.27231        55.31240        -1.08115
C         20.58369        57.37998        -1.45336
C         19.37439        56.70595        -1.11914
C         20.70651        58.72942        -1.17581
C         23.08204         3.21023        -0.91380
C         21.87803         3.90616        -0.80523
C         23.12343         5.99873        -0.50343
C         21.87253         5.31400        -0.60179
C         23.14477         7.40839        -0.27716
C         21.91187         8.11889        -0.16684
C         23.19563        10.29837        -0.09261
C         21.92632         9.57370         0.04619
C         23.23200        11.65637        -0.36117
C         21.99406        12.36555        -0.66693
C         23.30601        14.50235        -0.89181
C         22.08257        13.75151        -1.16927
C         23.22854        15.95574        -0.55931
C         22.17899        16.72155        -1.35662
C         23.47893        18.95417        -0.84268
C         22.20814        18.22489        -1.32422
C         23.27897        20.28075        -0.13046
C         22.03712        21.00426        -0.30282
C         23.14528        23.02009         0.62779
C         21.98676        22.38917         0.17397
C         23.09719        24.40515         1.14412
C         21.82052        25.19809         0.99860
C         23.18516        27.37108         0.98946
C         21.88024        26.68602         0.96539
C         23.20696        28.87603         1.09064
C         21.92398        29.59356         1.17862
C         23.16855        31.70487         1.71299
C         21.91205        30.98245         1.37507
C         23.21728        33.16044         1.27671
C         21.92251        33.88400         1.59432
C         23.14793        36.03956         1.74982
C         21.91754        35.30146         1.72995
C         23.13015        37.43653         1.61501
C         21.87541        38.15863         1.67800
C         23.08477        40.31147         1.26742
C         21.85662        39.58412         1.57868
C         23.09573        41.69498         1.02054
C         21.81113        42.42445         1.02714
C         23.07827        44.61239         0.55552
C         21.80982        43.92575         0.91878
C         23.15644        46.08307         0.55353
C         22.00058        46.89488         0.98320
C         22.99412        48.91182        -0.27470
C         21.97129        48.35936         0.67094
C         23.06437        50.35640        -0.38350
C         21.94199        51.17476         0.07506
C         23.06662        53.13497        -1.23823
C         21.89595        52.62187        -0.49431
C         22.99863        54.40819        -1.97017
C         21.68264        55.15079        -2.00382
C         23.01567        57.37230        -2.28988
C         21.63582        56.67141        -2.30602
C         23.11449        58.74713        -1.74245
C         21.95164        59.43443        -1.30244
C         23.28480        61.42774        -0.87357
C         22.04997        60.78089        -0.88892
C         24.30619         3.87278        -0.82897
C         25.58373         5.97717        -0.54833
C         24.35522         5.27961        -0.62100
C         25.62935         7.37575        -0.32156
C         24.39497         8.07360        -0.14337
C         25.73400        10.23899         0.14701
C         24.41972         9.51619         0.13912
C         25.71463        11.68017        -0.18891
C         24.52341        12.32817        -0.48440
C         25.86867        14.51325        -0.72384
C         24.55349        13.75362        -0.85947
C         25.81304        15.95149        -0.36498
C         24.55775        16.67302        -0.45238
C         25.70350        18.67524         0.37874
C         24.52319        18.03187        -0.23047
C         25.63233        20.12221         0.72728
C         24.39917        20.89586         0.40200
C         25.60261        23.00519         0.84399
C         24.40678        22.31818         0.67287
C         25.61928        24.47919         0.82062
C         24.39146        25.15300         1.32316
C         25.71479        27.38815         1.19071
C         24.43552        26.64600         1.34775
C         25.66408        28.80604         1.37471
C         24.47116        29.50707         1.49895
C         25.73232        31.68558         1.62092
C         24.46403        30.94535         1.82332
C         25.67043        33.14645         1.71149
C         24.49571        33.85472         1.70419
C         25.69127        36.10053         1.84114
C         24.41866        35.31398         2.17010
C         25.62513        37.46774         1.24429
C         24.35428        38.17834         1.34479
C         25.50522        40.26937         0.65203
C         24.30809        39.55773         1.14380
C         25.58622        41.74675         0.78117
C         24.31697        42.45482         0.80420
C         25.56962        44.61125         0.65396
C         24.32138        43.83226         0.61457
C         25.57260        46.00418         0.14778
C         24.32140        46.70374         0.14351
C         25.55840        48.74613        -0.63419
C         24.28514        48.06154        -0.43009
C         25.52887        50.15178        -1.05255
C         24.22982        50.97453        -0.98422
C         25.52349        53.09065        -1.48008
C         24.27068        52.44599        -1.18367
C         25.57766        54.42552        -1.86988
C         24.32945        55.10084        -2.29698
C         25.59878        57.30129        -2.10572
C         24.32653        56.60262        -2.41863
C         25.59767        58.63370        -1.84364
C         24.37375        59.38085        -1.62924
C         24.44245        60.72782        -1.21021
C         26.87707         8.07277        -0.31750
C         28.18095        10.17252        -0.08684
C         26.98433         9.47167        -0.11455
C         28.17313        11.59654         0.41815
C         26.98391        12.36868        -0.13794
C         28.34006        14.42890        -0.24393
C         27.05583        13.72208        -0.33357
C         28.30757        15.91413        -0.09700
C         26.99900        16.61280        -0.02194
C         28.22091        18.70069         0.51398
C         27.00948        17.98955         0.32274
C         28.21453        20.13438         0.63663
C         26.93793        20.84258         0.92805
C         28.13789        23.10511         0.64079
C         26.90857        22.33764         0.94620
C         28.16734        24.48457         0.66316
C         26.89769        25.24953         0.71617
C         28.19238        27.35798         1.08417
C         26.93802        26.69879         1.06240
C         28.25046        28.78321         1.49883
C         26.93860        29.52462         1.59894
C         28.10770        31.69576         0.85695
C         26.90598        30.99813         1.44291
C         28.23098        33.10479         1.41594
C         26.98542        33.83008         1.83000
C         27.95160        35.87554         0.74637
C         26.98017        35.32263         1.69117
C         28.08549        37.35382         0.71708
C         26.78467        38.08292         0.81003
C         28.06535        40.27861         0.28372
C         26.76835        39.50001         0.39571
C         28.07516        41.62788         0.99118
C         26.79354        42.39672         0.74993
C         28.10825        44.51413         0.26864
C         26.87171        43.86529         0.77010
C         28.00318        45.86019        -0.31021
C         26.75619        46.65099        -0.18636
C         28.04247        48.76676        -0.70757
C         26.77069        48.06209        -0.50706
C         28.05757        50.17513        -0.86302
C         26.78955        50.92027        -0.84819
C         28.08016        53.05089        -1.35165
C         26.77880        52.40826        -1.07671
C         28.03803        54.44088        -1.71838
C         26.85176        55.10889        -1.93311
C         26.89539        56.56138        -2.35521
C         29.49131        12.32341         0.29227
C         30.78847        14.44735         0.19218
C         29.56752        13.68040         0.12692
C         30.78695        15.84120         0.32215
C         29.47592        16.53189         0.64135
C         30.68591        18.73613         0.47562
C         29.48702        18.02987         0.48877
C         30.67574        20.17995         0.48970
C         29.39800        20.85268         0.58047
C         30.64408        23.07780         0.27810
C         29.35840        22.32419         0.38676
C         30.62854        24.55057         0.42747
C         29.39992        25.23990         0.59677
C         30.63927        27.37860         0.62795
C         29.40082        26.65696         0.77569
C         30.68984        28.79835         0.73942
C         29.58220        29.56031         1.43589
C         30.58524        31.68298         0.55509
C         29.45850        30.99591         0.89083
C         30.68228        33.21712         0.59296
C         29.28597        33.81744         0.65707
C         30.66779        36.07906        -0.55622
C         28.85021        35.01648         0.09765
C         30.61634        37.41763        -0.17747
C         29.35363        38.06494         0.29291
C         30.66790        40.23901         0.32806
C         29.35315        39.55461         0.13856
C         30.67056        41.70527         0.52847
C         29.37706        42.43824         0.77605
C         30.56611        44.55348         0.03775
C         29.32138        43.85693         0.31667
C         30.56595        45.92328        -0.24843
C         29.31171        46.61079        -0.57321
C         30.51057        48.79075        -0.67132
C         29.27627        48.08030        -0.64074
C         30.49272        50.19272        -0.84464
C         29.27637        50.90020        -0.95925
C         29.24887        52.32497        -1.22041
C         31.96852        16.61090         0.32423
C         33.15010        18.77547         0.41657
C         31.95965        18.03133         0.42106
C         33.15113        20.20191         0.46381
C         31.88404        20.88632         0.49701
C         33.14030        23.06397         0.29554
C         31.89416        22.37154         0.74617
C         33.07018        24.48954        -0.17040
C         31.83428        25.23924         0.28561
C         33.04390        27.37363         0.03905
C         31.83709        26.66010         0.31704
C         33.00501        28.77455        -0.00440
C         31.84635        29.49673         0.38614
C         33.04809        31.69047        -0.20259
C         31.95551        30.99857         0.62796
C         32.95979        33.11566        -0.51116
C         31.78059        33.82918        -0.32831
C         33.03680        36.01905        -0.51024
C         31.82703        35.28265        -0.51129
C         33.04617        37.42531        -0.35693
C         31.83442        38.13061        -0.12592
C         33.07525        40.30291        -0.40508
C         31.83145        39.57108         0.05541
C         33.14260        41.75064         0.02796
C         31.88749        42.46712         0.17752
C         33.06597        44.61847         0.04338
C         31.83752        43.85677         0.12474
C         33.03521        45.97617        -0.14608
C         31.78898        46.68564        -0.31298
C         31.74526        48.06038        -0.53883
C         34.35126        20.94463         0.47924
C         35.57966        23.12603         0.27208
C         34.36464        22.37923         0.34587
C         35.57963        24.54948         0.21957
C         34.34283        25.24894         0.08107
C         35.53753        27.36498        -0.02938
C         34.31392        26.65200        -0.02058
C         35.53315        28.77825        -0.41169
C         34.19746        29.50746        -0.44439
C         35.47150        31.59428        -0.91841
C         34.19644        30.98116        -0.45636
C         35.47062        33.05457        -1.20425
C         34.16501        33.80503        -1.07902
C         35.53388        36.02614        -0.74779
C         34.25319        35.31967        -0.92909
C         35.54557        37.36415        -0.38336
C         34.31544        38.13025        -0.30468
C         35.60177        40.20827        -0.09577
C         34.34916        39.51752        -0.19474
C         35.64917        41.72065        -0.17069
C         34.33057        42.42022         0.05238
C         34.37169        43.90333         0.33594
C         36.78298        25.30243         0.33057
C         37.98039        27.49702         0.28065
C         36.77688        26.70268         0.20264
C         37.98381        28.87388         0.08946
C         36.76728        29.57378        -0.27249
C         37.97304        31.70582        -0.47228
C         36.74849        30.92888        -0.52875
C         38.00623        33.05132        -0.79982
C         36.78322        33.79935        -1.16515
C         38.05023        35.94265        -0.44557
C         36.80473        35.30473        -0.95657
C         37.99444        37.34264        -0.11139
C         36.80711        38.05920        -0.15628
C         36.77842        39.49056        -0.01066
C         39.18298        29.66121         0.20081
C         40.41506        31.78727         0.05195
C         39.19041        31.01118        -0.06976
C         40.47971        33.07940        -0.31854
C         39.31457        33.80942        -0.92874
C         39.21260        35.22317        -0.39635
O         18.00601        50.18394         2.10547
O         22.24101        52.33836         0.90657
O         25.37528        19.13095         1.78314
O          7.60949        33.53896         0.89363
O         26.68330        51.85032         0.29306
O         30.00954        22.61880        -0.93697
O         23.60413        54.36104        -3.30734
O         33.98188        34.66298        -2.23561
O         16.37823        29.42574        -1.17014
O          9.85557        34.62990        -1.69606
O         27.61286        29.02325         2.81030
O         18.55969        27.05154         1.78557
O         24.75569        50.37182        -2.25808
O         16.60426        46.39421        -0.63394
O         26.05472        25.01308        -0.49197
O         25.09882         9.89086         1.42392
O         16.33763        22.98605        -2.13599
O         26.68937        36.06745         2.91707
O         22.19057        24.58241         2.27896
O         27.95157        33.30031         2.81723
O         23.69944        31.37089         3.01918
O         12.77670        42.22446        -0.70610
O         28.59135        15.33924        -1.39488
O         15.41433        35.68338        -0.19973
O         23.37904        28.18094        -0.21563
O         29.49118        35.51021        -1.03274
O         32.37867        31.15153         1.96626
O         24.45941        25.85508         2.59344
O         30.27163        42.17533         1.90539
O         26.28088        44.49735         1.95792
O         21.62089        13.86759        -2.59501
O         20.80970        41.91096         0.06138
O         13.95714        44.32941        -0.58660
O         28.56683        45.95590        -1.66229
O         16.59873        20.74534         0.64014
O         13.78242        31.02121         2.12497
O         28.67185        40.15697        -1.03033
O         23.67776        57.18136        -3.58256
O         19.25743        23.21387        -1.92631
O         20.74109        54.41258        -2.86730
O         22.53412        47.91109         1.93512
O         15.87510        42.17957         2.95798
O         23.26205        48.15504        -1.48941
O         19.48129        43.40219         3.15315
O         25.38697        14.13240        -2.05204
O         36.95950        34.71565        -2.30517
O         15.35836        26.96033         1.58877
O         18.10417        15.21130        -2.75087
O         25.86566        39.80299        -0.71424
O         20.27215        48.99434         2.30538
O         21.13493        10.07471         1.19107
O         27.01884        21.55138         2.21402
O         12.86229        36.65817         2.12578
O         29.10294        37.78058         1.72705
O         18.20636        36.51826         3.41906
O         10.94473        26.81085         1.42605
O         12.58134        34.54360        -0.95732
O         20.29738        16.52835        -2.88457
O         35.44264        32.08594        -2.30750
O         22.61894        17.45582        -2.51842
O         13.51880        33.67161         2.33595
O         22.06012        44.25447        -0.49019
O         13.21573        28.12673         1.88083
O         34.79818        28.97823        -1.67505
O         21.06365        45.52546         2.74053
O         36.10228        42.08898        -1.49935
H         36.94280        41.61607        -1.67508
O         28.00234        57.22957        -1.75129
H         27.90627        57.17628        -0.77869
O         18.82327        28.95824        -1.30664
H         18.02507        29.00519        -1.88257
O         27.78313        31.91605        -0.55551
H         27.68788        31.04687        -0.99875
O         24.31473        35.23590         3.61506
H         25.23072        35.31003         3.97509
O         32.89757        40.35999        -1.86444
H         33.70078        40.77923        -2.24194
O         23.27398        33.08832        -0.18787
H         23.12193        33.98676        -0.54947
O         31.22464        33.49404         1.91720
H         31.72777        32.67469         2.21883
O         16.53752        44.67756         3.17174
H         17.24312        44.38222         3.78739
O         31.86464        22.54362         2.21683
H         32.65656        22.09557         2.58440
O         22.65572        15.99417         0.81417
H         23.34171        15.68422         1.44435
O         13.97137        29.95101        -1.23003
H         14.78819        30.15592        -1.74482
O         20.82940        19.33789        -2.95056
H         20.91713        18.47479        -3.42292
O         21.14512        56.82944        -3.65236
H         20.68321        55.99325        -3.89505
O         27.94013        11.50075         1.87008
H         27.13509        10.95529         2.01349
O         30.04949        29.69990         2.79282
H         29.25887        29.80890         3.37021
O         35.46877        44.53193        -0.32630
H         35.72374        43.97858        -1.09898
O         27.98684        41.27890         2.39810
H         28.87081        41.46106         2.80246
O         39.59603        33.93013        -2.36097
H         38.76979        34.28403        -2.77402
O         18.05724        40.42447         3.79383
H         17.16435        40.77525         4.02007
O          7.51324        31.26410        -2.74631
H          8.36868        30.82403        -2.93985
O         32.95417        24.40820        -1.64479
H         33.04568        25.31931        -1.99839
O         29.19724        16.26638         2.05330
H         29.88770        16.70979         2.58949
O         16.34010        38.22068         3.64192
H         16.79825        37.48723         4.12072
O         24.18058        19.39052        -2.05312
H         24.01698        18.70233        -2.74187
H          5.00898        31.30234        -1.30440
H          4.90282        33.66698        -0.76043
H          7.48515        26.92644        -1.24951
H          6.30493        29.05786        -1.42625
H          6.22415        35.99198        -0.72376
H          7.48689        38.13762        -0.40416
H          9.89675        22.61444        -0.90095
H          8.70384        24.74884        -1.02538
H          8.72053        40.21319        -0.03255
H          9.70295        42.18640         0.62606
H         12.46406        18.32836        -0.84479
H         11.16992        20.44817        -0.88034
H         10.85708        44.60167         0.81045
H         12.30232        46.83404         0.93181
H         14.88867        14.12519        -0.77659
H         13.68421        16.22816        -0.88064
H         13.56587        48.81135         0.38561
H         14.78216        50.88260        -0.03070
H         17.25679         9.82815        -0.70404
H         16.09330        11.95029        -0.63996
H         15.96885        53.02220        -0.44955
H         17.15819        55.17742        -0.61763
H         19.70640         5.52394        -0.64475
H         18.50615         7.64039        -0.59591
H         18.52453        57.30869        -0.76205
H         19.85672        59.25971        -0.71780
H         23.06558         2.12274        -1.07200
H         20.92146         3.36954        -0.87860
H         23.35013        62.47869        -0.56027
H         21.14125        61.31280        -0.57346
H         25.24601         3.30993        -0.92038
H         26.52524         5.42251        -0.67544
H         26.55778        59.15462        -1.70904
H         25.42364        61.21924        -1.14572
H         27.79725         7.49228        -0.48057
H         29.13570         9.64573        -0.23519
H         28.98399        54.99023        -1.83807
H         27.07749        56.58879        -3.46699
H         30.40003        11.75525         0.54568
H         31.75037        13.91194         0.15742
H         31.44457        50.74202        -0.89065
H         30.21205        52.83344        -1.37962
H         32.93586        16.10102         0.19419
H         34.11356        18.24577         0.37186
H         33.97956        46.53777        -0.19098
H         32.68907        48.62266        -0.59442
H         35.31134        20.40816         0.48575
H         36.53992        22.59345         0.33969
H         36.40348        42.11012         0.57408
H         34.55177        44.02023         1.45278
H         37.73624        24.77378         0.47783
H         38.92788        26.98533         0.50609
H         38.93655        37.86110         0.12125
H         37.73620        40.02237         0.10407
H         40.11712        29.16125         0.49783
H         41.30442        31.27828         0.45392
H         41.42752        33.63210        -0.23421
H         40.14283        35.72553        -0.08850
