         621
 CSIRO Nanostructure Databank - Neutral Graphene Oxide Data Set
C          5.73776        31.64576         0.46374
C          5.75713        33.00791         0.48530
C          8.12587        27.27375         0.54455
C          8.20260        28.72384         0.68793
C          6.99013        29.49400         0.49918
C          8.21898        31.63857         0.47525
C          6.95797        30.87257         0.50920
C          8.21166        33.07290         0.76316
C          6.98362        33.77181         0.68558
C          8.16642        35.97003         0.92100
C          6.95283        35.17308         0.70851
C          8.30030        37.32656         0.41278
C         10.78826        23.07124         0.86209
C         10.69054        24.46698         1.11245
C          9.44012        25.06796         0.78708
C         10.84345        27.38625         1.53797
C          9.02717        26.38633         1.13090
C         10.70875        28.69876         0.94999
C          9.41482        29.41132         0.89154
C         10.76265        31.61924         0.93942
C          9.51605        30.85746         0.62299
C         10.74385        33.02105         1.09420
C          9.42754        33.70562         1.40408
C         10.75053        35.93805         1.05039
C          9.46299        35.23704         1.28111
C         10.74474        37.35807         0.86858
C          9.50679        38.03715         0.54435
C         10.74192        40.18223         0.41642
C          9.56554        39.41491         0.22148
C         10.78689        41.50993        -0.03818
C         13.22659        18.85737         0.44867
C         13.16966        20.19560         0.85860
C         11.99215        20.94602         0.75059
C         13.19525        23.00773         1.43918
C         11.96591        22.33329         1.03016
C         13.15660        24.45903         1.55807
C         11.94133        25.15892         1.47148
C         13.23680        27.32645         1.38949
C         11.99142        26.60727         1.44100
C         13.23042        28.71957         1.27282
C         12.04849        29.45732         0.81683
C         13.19344        31.65412         1.10570
C         11.99718        30.93481         0.94241
C         13.20205        33.06118         1.18515
C         11.95511        33.76265         1.18542
C         13.22733        35.93893         1.05918
C         11.94073        35.20812         1.14537
C         13.25065        37.43697         1.01067
C         11.94507        38.13420         0.97565
C         13.09995        40.31862         1.48069
C         11.92844        39.52655         0.92245
C         13.11402        41.79643         0.99996
C         11.93599        42.37593         0.20785
C         13.31772        44.31674        -0.60313
C         12.14275        43.58264        -0.59917
C         13.45138        45.52893        -1.32768
C         15.72046        14.71300        -0.48527
C         15.66629        16.07980        -0.24407
C         14.46162        16.77189         0.03146
C         15.70430        18.85553         0.54286
C         14.45281        18.14654         0.34018
C         15.67483        20.33608         0.84473
C         14.38357        20.78548         1.54969
C         15.56721        22.99194         2.25778
C         14.35462        22.29458         1.65417
C         15.62777        24.42052         1.77364
C         14.44377        25.14509         1.61740
C         15.67389        27.29334         1.67501
C         14.47579        26.59742         1.54603
C         15.71430        28.74521         1.87917
C         14.40898        29.49478         1.63806
C         15.74875        31.64036         1.19611
C         14.46218        30.89863         1.13461
C         15.67952        33.11192         1.28754
C         14.47468        33.76080         1.28139
C         15.73939        36.00740         1.60997
C         14.46081        35.22758         1.50466
C         15.70706        37.48544         1.51234
C         14.49813        38.19637         1.33901
C         15.65558        40.38070         1.72288
C         14.44202        39.60019         1.38411
C         15.68423        41.84298         1.32018
C         14.42224        42.55203         0.91122
C         15.83979        44.39334        -0.21475
C         14.50228        43.85987         0.17023
C         15.90907        45.56010        -0.95305
C         14.68679        46.20657        -1.42347
C         15.95884        48.26947        -1.97951
C         14.75613        47.50010        -1.97380
C         15.95739        49.62294        -2.35805
C         18.23228        10.67081        -1.98951
C         18.17521        12.09174        -1.72560
C         16.97474        12.69498        -1.27568
C         18.15665        14.78609        -0.85588
C         16.94474        14.04747        -0.87425
C         18.16394        16.11185        -0.15363
C         16.91123        16.91770        -0.45331
C         18.18229        18.88319         0.56409
C         16.91397        18.24104         0.29508
C         18.22981        20.17052         1.19161
C         16.93370        20.82026         1.55973
C         18.22801        22.96111         2.35868
C         16.90624        22.21114         2.12326
C         18.21927        24.39625         1.85488
C         16.92531        25.05490         1.54667
C         18.20627        27.28626         1.84259
C         16.93632        26.59597         1.47510
C         18.23398        28.79035         1.97321
C         16.97335        29.48333         1.76123
C         18.26676        31.67868         1.70604
C         16.95581        30.94223         1.74106
C         18.25717        33.08622         1.19001
C         16.95484        33.84703         1.13593
C         18.23409        35.95262         1.30259
C         17.02132        35.30043         1.34968
C         18.26962        37.39837         1.65766
C         16.96839        38.15605         1.87008
C         18.21003        40.33288         1.39340
C         16.99590        39.68080         2.03945
C         18.20592        41.70916         1.13130
C         16.97662        42.46942         0.94222
C         18.33057        44.28115        -0.05980
C         17.01251        43.68320         0.26097
C         18.44580        45.51117        -0.89555
C         17.19965        46.13126        -1.53299
C         18.35992        48.41473        -1.52322
C         17.19885        47.65056        -1.59598
C         18.35078        49.81960        -1.81447
C         17.13919        50.40236        -2.30841
C         18.31582        52.54523        -2.71500
C         17.17165        51.73128        -2.79317
C         18.26707        53.78392        -3.45698
C         20.83353         6.57267        -3.15381
C         20.70713         7.96931        -2.93521
C         19.50974         8.59825        -2.55667
C         20.59059        10.84446        -2.64465
C         19.40516        10.00973        -2.34123
C         20.54873        12.33240        -2.44268
C         19.33426        12.90929        -1.85825
C         20.53886        15.07275        -1.47710
C         19.34651        14.24890        -1.37843
C         20.58185        16.37726        -0.95781
C         19.39829        16.93888        -0.38190
C         20.69958        18.80451         0.49248
C         19.38697        18.23053         0.14439
C         20.71430        20.06292         1.30750
C         19.44024        20.80123         1.52961
C         20.67754        22.89873         1.92042
C         19.47963        22.19822         1.89920
C         20.68828        24.36683         1.73583
C         19.39566        25.08156         1.72387
C         20.75931        27.33580         1.65924
C         19.46833        26.55529         1.50129
C         20.73950        28.80124         1.88698
C         19.52418        29.51324         1.85090
C         20.75909        31.60012         1.54574
C         19.53252        30.91538         1.70599
C         20.73523        33.03811         1.16051
C         19.50667        33.84840         1.29259
C         20.77142        35.96915         1.19614
C         19.50368        35.23282         1.21589
C         20.75964        37.44230         1.20787
C         19.50754        38.17082         1.38582
C         20.66885        40.31607         0.99899
C         19.43362        39.56304         1.29275
C         20.66190        41.75981         1.24854
C         19.46428        42.44200         1.07238
C         20.67823        44.59420         0.76619
C         19.49361        43.82840         0.73294
C         20.74097        45.87410         0.16933
C         19.69725        46.33989        -0.76248
C         20.73196        48.71204        -0.72118
C         19.65271        47.79950        -1.14490
C         20.74188        50.03370        -1.15801
C         19.52654        50.62888        -1.70674
C         20.76226        52.73295        -2.00261
C         19.50916        52.00082        -2.07497
C         20.83676        54.12805        -2.16683
C         19.11321        54.87250        -3.20901
C         20.77715        56.65205        -3.83318
C         19.55241        55.91323        -4.03713
C         20.86726        57.87553        -4.52520
C         23.51223         3.98493        -3.66735
C         22.25322         4.55326        -3.41660
C         23.22962         6.76465        -3.86542
C         22.06484         5.94957        -3.45387
C         23.17319         8.25695        -3.59531
C         21.96909         8.75174        -2.88909
C         23.13312        11.05457        -2.91223
C         21.93895        10.22897        -2.63744
C         23.04017        12.48374        -2.71792
C         21.82652        13.06689        -2.37949
C         22.89144        15.37124        -2.46844
C         21.68906        14.52570        -2.23110
C         22.89757        16.76824        -1.92984
C         21.79780        17.20380        -1.01773
C         23.15634        19.15795        -0.15701
C         21.88906        18.37115        -0.28486
C         23.27301        20.21042         0.92582
C         22.02974        20.75132         1.49643
C         23.23371        22.99363         1.75376
C         21.99110        22.22313         1.88275
C         23.21114        24.39139         2.19654
C         21.98224        25.15604         1.84869
C         23.18675        27.33583         2.21112
C         22.01242        26.62882         1.96303
C         23.21948        28.77615         2.16506
C         21.97477        29.50003         1.96591
C         23.27663        31.60829         1.66232
C         21.96529        30.90846         1.74743
C         23.30760        33.06655         1.31378
C         22.02309        33.79323         1.03068
C         23.27309        35.93858         0.98867
C         21.96843        35.26590         1.17198
C         23.24578        37.43823         0.88556
C         21.96320        38.13313         1.10396
C         23.23345        40.37068         1.25521
C         21.99167        39.59880         0.96522
C         23.18300        41.73524         1.43273
C         21.90781        42.47233         1.48793
C         23.22397        44.64539         1.04884
C         21.91062        44.00740         1.34569
C         23.22010        46.11027         0.84651
C         21.85140        46.76179         0.50296
C         23.20900        48.93288        -0.03411
C         21.85947        48.18519         0.04448
C         23.22149        50.16740        -0.82351
C         21.99716        50.75285        -1.20973
C         23.23285        52.76734        -1.93594
C         22.00611        52.06656        -1.76757
C         23.22165        54.11825        -2.36851
C         22.01052        54.82644        -2.53358
C         23.18638        56.84955        -3.32911
C         21.96789        56.15269        -3.15462
C         23.25884        58.06347        -4.06768
C         22.06400        58.61540        -4.62185
C         23.32821        60.52002        -5.46670
C         22.12079        59.86081        -5.31271
C         24.64933         4.75443        -3.92285
C         25.68601         7.00767        -4.12608
C         24.57041         6.16756        -3.98396
C         25.63432         8.41631        -3.91966
C         24.41380         9.03729        -3.51066
C         25.64411        11.17459        -3.01149
C         24.35026        10.41549        -3.18192
C         25.48628        12.66242        -3.17223
C         24.24860        13.29674        -2.88956
C         25.34128        15.49379        -2.98863
C         24.19253        14.70572        -2.73426
C         25.47630        16.91397        -2.53576
C         24.20552        17.49975        -1.92924
C         25.69544        18.64258        -0.31602
C         24.34767        18.59375        -0.90905
C         25.74575        20.38488         0.96130
C         24.44075        20.95907         1.14694
C         25.67637        23.13113         1.41894
C         24.43668        22.35747         1.52659
C         25.70741        24.45060         1.79858
C         24.51288        25.12063         2.35279
C         25.76012        27.37741         2.48552
C         24.45779        26.61752         2.51451
C         25.70557        28.85049         2.30223
C         24.45809        29.48607         2.26591
C         25.72027        31.72853         2.40506
C         24.37821        30.98648         2.51215
C         25.74702        33.17769         2.03898
C         24.49855        33.87659         1.63075
C         25.78058        35.94328         1.52257
C         24.52364        35.21955         1.37576
C         25.77437        37.41565         1.36581
C         24.53520        38.19699         1.04396
C         25.68682        40.33829         1.46527
C         24.50174        39.66469         1.31106
C         25.72971        41.80812         1.59264
C         24.41335        42.53723         1.60885
C         25.66772        44.58156         0.74680
C         24.39405        43.95767         1.17747
C         25.68999        46.03124         0.34677
C         24.44933        46.82646         0.48858
C         25.70300        48.81659        -0.24518
C         24.46538        48.16444         0.11020
C         25.70371        50.15346        -0.73549
C         24.46925        50.81167        -1.06697
C         25.73162        52.76910        -1.84420
C         24.48833        52.11576        -1.63153
C         25.75206        54.05844        -2.62401
C         24.49063        54.85504        -2.40466
C         25.75890        56.89603        -3.23259
C         24.46322        56.29458        -2.82322
C         25.74447        58.12023        -3.87541
C         24.51181        58.73241        -4.28966
C         24.51977        59.95627        -4.97681
C         26.79363         9.23634        -4.10538
C         27.92103        11.42117        -4.04929
C         26.79434        10.60311        -3.81560
C         27.91969        12.81843        -3.80433
C         26.60422        13.43331        -3.53923
C         28.31011        15.76849        -3.23423
C         26.41304        14.82823        -3.60418
C         28.14049        16.76170        -2.30023
C         26.86093        17.52077        -2.15089
C         28.13460        18.85332        -0.18219
C         26.86824        18.42734        -0.95122
C         28.14597        20.35790         0.24789
C         26.92445        21.02563         0.67941
C         28.17410        22.96301         1.56474
C         26.92826        22.54257         0.75767
C         28.19724        24.48308         1.76809
C         26.92046        25.28864         1.44913
C         28.19243        27.40777         1.95304
C         26.98353        26.64040         2.13310
C         28.20330        28.81226         2.46083
C         26.94426        29.58590         2.29154
C         28.26152        31.69461         2.28049
C         26.99239        30.97017         2.28350
C         28.27309        33.12071         2.08450
C         27.03430        33.78579         1.52800
C         28.25095        36.01127         1.76386
C         26.98732        35.29320         1.68341
C         28.26741        37.41711         1.73347
C         26.98563        38.13879         1.83621
C         28.21408        40.26506         1.25231
C         26.96082        39.61922         1.72066
C         28.19459        41.74514         0.98102
C         26.96848        42.54026         1.21534
C         28.21697        44.64463         0.77779
C         26.95484        43.88366         0.98185
C         28.20102        46.05771         0.31392
C         26.98156        46.75295         0.24896
C         28.18891        48.82256        -0.26811
C         26.95236        48.13390        -0.07598
C         28.18116        50.18634        -0.67174
C         26.94332        50.83410        -0.94664
C         28.19955        52.87822        -1.63473
C         26.94324        52.16177        -1.48152
C         28.18928        54.22976        -2.06553
C         27.00472        54.88678        -2.45542
C         26.97007        56.22279        -2.87328
C         29.16499        13.48552        -3.68752
C         30.58118        15.26677        -2.61218
C         29.39179        14.81228        -3.20823
C         30.61637        16.53201        -1.95833
C         29.35559        17.21928        -1.65087
C         30.61859        19.13698        -0.82726
C         29.36117        18.39026        -0.92074
C         30.60000        20.51568        -0.23655
C         29.34113        21.07276         0.32238
C         30.65642        23.04646         1.04989
C         29.44180        22.39404         0.93066
C         30.79829        24.37675         1.79391
C         29.50551        25.19560         1.87452
C         30.79157        27.37444         2.12087
C         29.54574        26.70650         1.75771
C         30.83288        28.78208         2.54473
C         29.51138        29.53880         2.62882
C         30.73636        31.76356         2.74455
C         29.47465        31.00357         2.44174
C         30.73397        33.20185         2.26825
C         29.49383        33.85918         2.07512
C         30.70513        36.03287         1.88573
C         29.47834        35.29512         1.87930
C         30.70329        37.45721         1.78489
C         29.48604        38.15630         1.70212
C         30.69358        40.27672         1.20284
C         29.49660        39.57730         1.45316
C         30.65715        41.68244         0.83751
C         29.48520        42.40925         0.83059
C         30.68084        44.47869        -0.02051
C         29.49532        43.87525         0.66533
C         30.72328        45.99540        -0.10607
C         29.43602        46.73566         0.12249
C         30.67604        48.84062        -0.26965
C         29.42689        48.12244        -0.13106
C         30.65081        50.19319        -0.60000
C         29.42613        50.88277        -0.86038
C         29.40534        52.22155        -1.30217
C         31.82690        17.07630        -1.49343
C         33.07491        19.04228        -0.64373
C         31.88926        18.39052        -0.95832
C         33.10529        20.39145        -0.15101
C         31.89350        21.10424         0.15054
C         33.16535        23.10612         0.73730
C         31.91233        22.40650         0.66892
C         33.21791        24.50052         0.98801
C         31.94949        25.21919         1.25677
C         33.34547        27.32522         1.73370
C         31.99745        26.68278         1.63553
C         33.45750        28.79537         2.12002
C         32.17208        29.55958         2.55398
C         33.15711        31.86527         2.56147
C         32.03821        31.04229         2.44870
C         33.21246        33.22818         2.18552
C         31.95410        33.91687         2.06961
C         33.17681        36.03314         1.51982
C         31.93568        35.32133         1.89117
C         33.26910        37.50373         1.72909
C         31.95527        38.24060         1.83851
C         33.18292        40.29783         1.08823
C         31.95699        39.64428         1.40493
C         33.09242        41.54661         0.43745
C         31.89752        42.31852         0.42101
C         33.67765        44.86546         0.27458
C         31.86981        43.62404        -0.07321
C         33.24230        46.14140         0.54548
C         31.99747        46.76215         0.08099
C         31.90940        48.13746         0.00526
C         34.33226        21.04488         0.02224
C         35.57812        23.14385         0.22377
C         34.38093        22.42084         0.36757
C         35.59148        24.56505         0.28877
C         34.38342        25.24547         0.73520
C         35.52159        27.40257         0.49027
C         34.43062        26.66442         0.94795
C         35.57816        28.80509         0.70880
C         34.65663        29.46629         1.52555
C         35.76665        31.67644         1.14439
C         34.95439        30.82015         1.85529
C         35.77422        33.12073         1.42829
C         34.50322        33.87685         1.88843
C         35.73780        36.06121         1.29009
C         34.46725        35.29041         1.39542
C         35.72137        37.49100         1.26134
C         34.50703        38.23043         1.36646
C         35.73889        40.34972         1.19656
C         34.48424        39.63308         1.23511
C         35.87745        41.84749         1.50518
C         34.94296        42.77109         0.74511
C         34.72689        44.10771         0.94927
C         36.70508        25.29581        -0.11557
C         37.89756        27.51320        -0.33528
C         36.58481        26.76619        -0.38378
C         37.92703        28.86941        -0.23804
C         36.64634        29.58456         0.02490
C         37.93834        31.84263        -0.26770
C         36.66321        31.08576         0.12089
C         38.07224        33.12018         0.57943
C         36.75007        33.91156         0.56000
C         38.12011        36.05576         0.70965
C         36.89761        35.36325         0.97131
C         38.13625        37.45467         0.80205
C         36.94578        38.19243         1.04196
C         36.91712        39.62102         1.09632
C         39.16325        29.63972        -0.23312
C         40.43205        31.77055        -0.20618
C         39.20148        31.00749        -0.16489
C         40.46668        33.13664        -0.10836
C         39.29329        33.92629         0.19823
C         39.29853        35.29235         0.32118
O         27.99467        40.75648        -0.12010
O         32.76937        37.92503         3.03778
O         23.70862        19.81589        -1.38557
O         35.63040        33.60407         2.78459
O          9.03482        31.26381        -0.71187
O         18.19489        27.85746         3.17087
O         14.97944        35.55951         2.83257
O         26.16694        17.89382        -3.36776
O         30.51180        45.17133        -1.31273
O         20.36843        11.71864        -3.78917
O         11.41807        28.85660        -0.34452
O         34.20987        42.07228        -0.23458
O         22.32325        49.05963         1.11813
O         31.61745        29.01609         3.78844
O         20.18887        46.77801        -2.08647
O         13.42402        36.63037        -0.22801
O          9.74524        26.91037         2.24256
O         22.20395         9.27942        -1.53967
O         36.07266        30.43185        -1.05233
O         34.34261        31.28583         3.01373
O         28.82748        27.28254         0.58960
O         14.32548        43.83278         1.62399
O         25.48101        37.84727        -0.01775
O         12.12940        42.57896         1.68110
O         22.89473         7.72817        -4.92645
O         19.68994        54.87434        -1.91923
O         21.50316        24.69563         0.53517
O         22.34125        46.68232         1.86983
O         25.80693        32.78474         3.43995
O         24.51447        55.90656        -1.39571
O         14.87524        29.28092         3.00078
O         23.28054        36.60937        -0.32159
O         25.14559        42.29884         2.85902
O         25.73336        18.98084         1.04649
O         31.68417        26.20812         0.22851
O         23.83337        24.51497         3.51036
O         33.64101        35.53851         0.20737
O         21.34894        33.29432        -0.16181
O         20.16197        27.00905         0.31537
O         33.77103        27.72627         3.06701
O         20.82261        18.74868         1.97420
O         26.93487        38.98339         3.04635
O         18.70467        44.20480        -1.51907
O         17.61059        33.33460        -0.09811
O         23.20538        17.78520        -2.94142
O         21.81592        43.39159         2.64868
O         27.37103        15.60073        -4.25584
O         23.64964        32.01845         0.32296
O         16.84155        21.03663         3.00578
O         32.97501        44.14686        -0.73136
O         25.09095        27.00898         3.77107
O         15.28900        31.06123        -0.07400
O         21.32573        40.00902        -0.29379
O         28.73922        24.82413         3.08429
O         15.47288        41.44354         2.71986
O         29.14796        44.54228         1.93954
O         17.68846        37.53860         3.01123
O         22.14903        21.16531         2.89264
O          8.69148        35.86103         2.33678
O         21.91406        15.20355        -3.54811
O         30.54773        20.33679        -1.71465
O         17.51220        31.57160         2.96453
O         28.75337        29.02038         3.79968
O         25.58195        44.97174        -0.69343
O         17.00500        25.79931         0.26843
O         31.20639        24.05197         3.14566
H         30.38897        23.98273         3.69105
O         25.70503        53.67498        -4.04102
H         26.49125        53.11882        -4.22566
O         30.70458        31.83491         4.22931
H         30.80079        30.90860         4.55612
O         36.17373        33.97458        -0.76301
H         36.80332        33.57619        -1.41602
O         37.84846        32.20304        -1.67000
H         37.29985        31.49702        -2.09281
O         16.95306        17.26263        -1.86613
H         16.07794        17.62485        -2.11795
O         27.06011        33.52497         0.08890
H         27.77333        34.06449        -0.31246
O          9.22237        33.41065         2.82930
H          8.74182        34.18866         3.20533
O         18.37576        23.07555         3.79832
H         18.12229        22.20481         4.17958
O         15.30185        23.04370         3.69077
H         15.42561        22.12244         4.01839
O         27.08803        23.07301        -0.56928
H         26.25400        22.95488        -1.06824
O         35.68676        42.03724         2.91893
H         34.91518        41.50693         3.20707
O         28.20638        18.10363         1.06733
H         27.39521        18.32379         1.58472
O         14.38819        20.23518         2.89296
H         13.52644        20.44858         3.30750
O         28.03826        22.33842         2.85828
H         28.39851        22.96124         3.53024
O         26.02353        10.97551        -1.60139
H         26.09601        10.00874        -1.45179
O         18.12094        15.82192         1.27802
H         18.98546        15.44596         1.54468
O         23.89646        31.12717         3.87155
H         24.63736        30.93934         4.48557
O         15.66086        21.01353        -0.44570
H         16.35662        20.62064        -1.01389
O         36.11524        26.87854        -1.77868
H         35.24264        26.43317        -1.83262
O         12.84842        40.39079         2.91430
H         13.56624        40.94637         3.30202
O         17.22735        39.94905         3.44395
H         17.65600        39.14762         3.82883
O         26.83926        25.56834         0.03048
H         27.59097        26.17415        -0.19355
O         17.18660        45.72304        -2.93131
H         17.70868        44.88779        -2.98418
O         38.29341        32.65093         1.93183
H         38.23908        33.41353         2.54545
H          4.78062        31.10931         0.38333
H          4.81418        33.56997         0.41774
H          7.37554        26.88757        -0.16240
H          6.04082        28.94193         0.42448
H          6.01275        35.69835         0.48553
H          7.42516        37.81834        -0.03640
H          9.88324        22.53608         0.53507
H          8.74539        24.45358         0.19180
H          8.65674        39.91962        -0.13784
H          9.93227        41.91412        -0.60082
H         12.29930        18.35602         0.12997
H         11.08375        20.46626         0.35412
H         11.31203        43.90839        -1.24385
H         12.55950        45.97338        -1.79406
H         14.79570        14.11776        -0.42856
H         13.50804        16.22170         0.01964
H         13.82671        47.97792        -2.31886
H         15.02279        50.08681        -2.70672
H         17.31384        10.08546        -1.83022
H         16.05350        12.09519        -1.23075
H         16.26450        52.13959        -3.26306
H         17.55874        53.83531        -4.29805
H         19.94612         5.93713        -3.01021
H         18.59926         7.98781        -2.45569
H         18.96933        56.15781        -4.93843
H         19.96763        58.26418        -5.02585
H         23.61348         2.89128        -3.62134
H         21.40566         3.90124        -3.16125
H         23.36475        61.48145        -5.99780
H         21.19557        60.28738        -5.72570
H         25.62344         4.26242        -4.05588
H         26.66770         6.54997        -4.32181
H         26.69212        58.61439        -4.13830
H         25.47547        60.47437        -5.14143
H         27.68942         8.78221        -4.55668
H         28.85171        10.94716        -4.39974
H         29.13587        54.79222        -2.05952
H         27.91719        56.77916        -2.95814
H         30.05660        12.84172        -3.77190
H         31.49083        14.64845        -2.64120
H         31.59873        50.74200        -0.70690
H         30.35692        52.76127        -1.42186
H         32.76044        16.51004        -1.63059
H         34.03495        18.53157        -0.81230
H         33.87795        46.77197         1.18767
H         32.82327        48.73825         0.13177
H         35.26678        20.52275        -0.23073
H         36.48884        22.61690        -0.09762
H         36.93622        42.14968         1.28573
H         35.31219        44.62042         1.72607
H         37.60135        24.76367        -0.46907
H         38.83143        26.94636        -0.47278
H         39.07372        37.99965         0.61493
H         37.87680        40.16027         1.06332
H         40.10843        29.07479        -0.27123
H         41.37286        31.21898        -0.35801
H         41.42825        33.66131        -0.21810
H         40.22197        35.85225         0.10454
