         234
 CSIRO Nanostructure Databank - Neutral Graphene Oxide Data Set
C          1.33667         2.16597         1.30977
C          1.30619         3.56418         1.24470
C          2.54241         1.48132         1.32029
C          2.50057         4.31827         1.20711
C          1.25876         6.53352         1.12301
C          1.24775         7.91388         0.96818
C          2.45601         5.78263         1.04138
C          2.42739         8.64600         0.67758
C          1.23919        10.88624         0.75006
C          1.23502        12.23336         0.85448
C          2.46288        10.10740         0.65793
C          2.49805        13.02577         1.05953
C          1.29685        15.14413         0.21274
C          1.17017        16.49234        -0.29078
C          2.46090        14.47446         0.56107
C          2.03902        17.51341         0.03590
C          2.30420        18.81282        -0.54793
C          3.77771         2.19226         1.29928
C          3.73458         3.62532         1.26793
C          4.99428         1.47217         1.24022
C          5.00441         4.37970         1.23317
C          3.63522         6.49645         0.73722
C          3.61940         7.88936         0.52994
C          4.94527         5.81709         0.83516
C          4.87456         8.56724         0.16341
C          3.67239        10.80906         0.55145
C          3.73014        12.24433         0.60093
C          4.89906        10.06798         0.17517
C          4.91776        12.92795         0.31502
C          3.75561        15.09503         0.37260
C          3.88101        16.52176         0.34623
C          4.91637        14.34364         0.15238
C          4.87295        17.22884        -0.29878
C          3.56403        19.36343        -0.57751
C          4.84036        18.67475        -0.43126
C          6.30899         2.09171         1.26395
C          6.32926         3.65947         1.18277
C          7.53659         1.41009         0.89627
C          7.49576         4.27937         0.52595
C          6.16159         6.47084         0.30488
C          6.15564         7.81958         0.16449
C          7.31737         5.61664        -0.17655
C          7.46368         8.56861         0.17892
C          6.22822        10.74098         0.27819
C          6.22784        12.23237         0.23952
C          7.42566        10.02675        -0.21695
C          7.44148        12.89824        -0.26306
C          6.09349        14.99981        -0.46219
C          6.02389        16.46491        -0.81225
C          7.45067        14.38942        -0.17201
C          7.28221        17.23223        -1.08399
C          6.04774        19.35353        -0.60309
C          7.31181        18.67661        -0.74064
C          8.72163         2.12820         0.67433
C          8.65089         3.55177         0.34728
C          9.97610         1.47294         0.63150
C          9.84202         4.14967        -0.31671
C          8.60383         6.40919        -0.31283
C          8.59693         7.76324        -0.38484
C          9.83468         5.64030        -0.63003
C          9.79375         8.49434        -0.87232
C          8.54646        10.71935        -0.59119
C          8.58931        12.18388        -0.59996
C          9.77518         9.99121        -0.99610
C          9.83093        12.86836        -0.89749
C          8.61105        15.02049        -0.87769
C          8.58298        16.46550        -1.13945
C          9.82301        14.31599        -0.98998
C          9.83378        17.20314        -0.97199
C          8.53886        19.31112        -0.65950
C          9.80188        18.60955        -0.76960
C         11.19577         2.12090         0.28258
C         11.15459         3.48962        -0.20355
C         12.42449         1.48632         0.48451
C         12.31794         4.19725        -0.49684
C         11.12977         6.34365        -0.58907
C         11.09486         7.81993        -0.57623
C         12.31869         5.64379        -0.57750
C         12.35507         8.59947        -0.73278
C         11.04855        10.73801        -1.05990
C         11.05375        12.12953        -1.08352
C         12.29856         9.95519        -1.41923
C         12.32205        12.83848        -1.34698
C         11.03054        15.04687        -1.22732
C         11.05222        16.47836        -1.08544
C         12.26757        14.31081        -1.55729
C         12.26912        17.21365        -1.02921
C         11.02592        19.27766        -0.56436
C         12.26295        18.58985        -0.65398
C         13.65890         2.03217        -0.05793
C         13.59999         3.48454        -0.61139
C         14.96577         1.56741         0.43715
C         14.87178         4.23789        -0.68283
C         13.62615         6.35731        -0.54172
C         13.67003         7.86392        -0.70666
C         14.87878         5.59705        -0.76586
C         14.89838         8.52547        -1.20651
C         13.59249        10.70065        -1.04136
C         13.52015        12.17102        -1.40496
C         14.82262         9.98439        -1.66775
C         14.83283        12.85071        -1.52068
C         13.56756        15.09024        -1.62557
C         13.54904        16.55693        -1.31188
C         14.88395        14.36318        -1.52775
C         14.80885        17.21594        -0.79682
C         13.47567        19.22314        -0.22835
C         14.69120        18.53199        -0.12708
C         16.13935         2.18544         0.10651
C         16.12668         3.42761        -0.72957
C         17.38523         1.74706         0.70228
C         17.42362         4.10459        -1.03342
C         16.14774         6.38592        -0.80228
C         16.10731         7.84427        -1.14800
C         17.43813         5.62465        -1.02964
C         17.36182         8.53211        -1.30742
C         16.08430        10.72462        -1.31876
C         16.06766        12.09564        -1.15427
C         17.37828        10.02081        -1.59890
C         17.26210        12.81897        -0.83101
C         16.05831        15.02020        -0.89435
C         15.99458        16.37406        -0.51579
C         17.23060        14.23570        -0.61834
C         17.11074        17.00640         0.08866
C         15.79171        19.03490         0.59465
C         16.99018        18.28744         0.78583
C         18.59258         2.32827         0.40460
C         18.66907         3.39398        -0.58404
C         19.85983         1.87418         0.97038
C         19.86736         3.63622        -1.16963
C         18.62460         6.41712        -1.44260
C         18.57844         7.83595        -1.35398
C         19.87773         5.81664        -1.67930
C         19.88124         8.54877        -1.37292
C         18.56232        10.73565        -1.00797
C         18.50654        12.09273        -0.65895
C         19.85759        10.05772        -1.07828
C         19.68309        12.73613        -0.14965
C         18.39869        14.90324        -0.15305
C         18.31814        16.28156         0.03499
C         19.74514        14.23216         0.06567
C         19.52433        16.84793         1.68801
C         17.85150        18.67616         1.83433
C         18.86222        17.84547         2.43803
C         21.06030         2.25275         0.48063
C         21.19954         3.08834        -0.77025
C         22.26103         4.18115        -0.65439
C         21.09430         6.37791        -1.24061
C         21.10896         7.79662        -1.02104
C         22.22693         5.51443        -0.91658
C         22.22112         8.51363        -0.56803
C         21.00561        10.64456        -0.38138
C         20.85264        11.98881         0.13908
C         22.16306         9.88141        -0.23648
C         21.81052        12.54804         1.02727
C         20.46179        14.55710         1.39503
C         20.14824        15.70941         2.23671
C         21.52685        13.72674         1.73385
C         20.36910        15.74675         3.63380
C         19.14391        17.85803         3.82880
C         19.91698        16.83844         4.38799
O          5.78406        15.43045        -1.82370
O         15.12982        13.60421        -2.74812
O          6.46227        11.47435         1.51657
O         12.84251        14.77199        -2.84136
O         14.44440        17.29242        -2.21557
O         19.51775        16.97999         0.29039
O          2.93184        17.22879         1.09582
O          6.57632         2.99914         2.41828
O         16.71398         3.39518        -2.08883
O          4.76010         9.35170        -1.09650
O         11.71672         8.52443         0.57613
O         13.83995         7.24092         0.61900
O         19.91556         4.53439        -2.24443
O          7.85491        16.90815        -2.38004
O         13.58434         2.33132        -1.49471
O          9.60285         9.08848        -2.18542
O          5.14234         5.42927         2.26934
O         20.10599         9.51707        -2.45434
O         17.03520         6.08254         0.32687
O          9.61870         4.65322        -1.69563
O         20.64140        14.75581        -0.97128
H         20.67158        15.73232        -0.84680
O          2.65849        13.12545         2.52021
H          3.53764        13.52467         2.69402
O         17.52674        10.10708        -3.07914
H         18.48179         9.90658        -3.26679
O         21.67376         2.19929        -1.82609
H         21.57677         2.68417        -2.67351
O         12.24263         9.67819        -2.82851
H         12.43041        10.50172        -3.32601
O         13.75523        10.68880         0.39737
H         13.47236         9.82369         0.76687
O          7.65113        14.72030         1.26708
H          8.24653        14.04113         1.65176
O          6.93413         5.26187        -1.54628
H          7.75510         4.93189        -1.99189
O          7.77533         8.66811         1.62184
H          7.63953         7.78700         2.03263
O         14.71694        10.02260        -3.11260
H         15.63578        10.00152        -3.47550
H          0.39089         1.60695         1.33435
H          0.33286         4.07025         1.20175
H          2.55835         0.38290         1.35342
H          0.31076         6.03086         1.35892
H          0.29305         8.44174         1.09640
H          0.27662        10.36000         0.67665
H          0.27013        12.75657         0.91577
H          0.36988        14.55051         0.15997
H          0.34134        16.68908        -0.98744
H          1.46495        19.39967        -0.95387
H          4.94587         0.38635         1.06798
H          3.64345        20.40227        -0.93873
H          7.55031         0.31172         0.85317
H          6.04441        20.45382        -0.64298
H         10.01873         0.41295         0.92196
H          8.57290        20.38936        -0.44094
H         12.46381         0.54659         1.05523
H         11.02502        20.34765        -0.30926
H         14.97527         0.71840         1.13780
H         13.41099        20.24549         0.17361
H         17.34551         0.90051         1.40418
H         15.68048        19.99386         1.12324
H         19.81393         1.19241         1.83359
H         17.53600        19.55915         2.41467
H         21.98504         1.87127         0.93878
H         23.24974         3.77264        -0.38567
H         23.18342         6.04311        -0.77034
H         23.16601         7.98404        -0.38429
H         23.06069        10.33538         0.20569
H         22.71258        11.97981         1.29037
H         22.18027        14.00592         2.57386
H         20.87725        14.91152         4.13477
H         18.70737        18.63666         4.46945
H         20.11198        16.85097         5.46945
