         732
 CSIRO Nanostructure Databank - Neutral Graphene Oxide Data Set
C         23.23346        25.02796         2.34291
C         22.05519        25.76456         2.43327
C         23.12439        27.64885         1.32343
C         21.99622        27.06283         1.92915
C         23.05710        29.02197         0.79170
C         21.82967        29.68632         0.59288
C         22.96907        31.74045        -0.07577
C         21.78662        31.01345         0.18254
C         22.93722        33.16794        -0.39356
C         21.77950        33.84840        -0.69074
C         22.91906        36.02672        -0.92506
C         21.75970        35.25891        -0.88947
C         22.90141        37.46654        -1.14642
C         21.68406        38.19102        -1.13563
C         22.86257        40.29666        -1.45599
C         21.66390        39.56391        -1.28267
C         22.87151        41.73538        -1.57983
C         21.66143        42.47297        -1.62184
C         22.88379        44.57926        -1.63596
C         21.66927        43.84970        -1.67142
C         22.87849        46.02860        -1.58732
C         21.67964        46.76441        -1.68564
C         22.87591        48.83480        -1.34341
C         21.68504        48.15226        -1.58114
C         25.69370        23.46176         1.94401
C         25.64285        24.83188         1.69205
C         24.38199        25.58555         1.74627
C         25.52864        27.50297         0.54954
C         24.32878        26.90783         1.25840
C         25.56667        29.03310         0.78967
C         24.24906        29.71494         0.47981
C         25.44902        31.74314        -0.37950
C         24.20702        31.05219         0.05087
C         25.43715        33.22285        -0.59353
C         24.20159        33.97783        -0.18349
C         25.38491        36.02607        -1.04684
C         24.19343        35.36996        -0.77409
C         25.37732        37.44526        -1.36649
C         24.11536        38.16660        -1.33006
C         25.30923        40.30554        -1.72618
C         24.09549        39.58721        -1.49589
C         25.34319        41.71188        -1.72607
C         24.10575        42.43907        -1.62980
C         25.36075        44.58026        -1.52018
C         24.11195        43.86876        -1.61034
C         25.35016        45.99574        -1.37655
C         24.10917        46.72251        -1.40302
C         25.33904        48.83884        -0.96809
C         24.09742        48.14088        -1.24217
C         25.35846        50.21616        -0.65591
C         28.12795        23.44287         1.84088
C         26.91732        22.77076         1.96929
C         28.11117        24.84352         1.59044
C         26.86648        25.52531         1.43527
C         28.05992        27.56792         0.83829
C         26.85378        26.88270         0.98781
C         28.06905        28.93601         0.25474
C         26.75931        29.66128         0.09652
C         27.91722        31.85351        -0.18762
C         26.75685        31.12478        -0.11808
C         27.93120        33.26884        -0.53240
C         26.71779        33.96135        -0.63838
C         27.86906        35.98848        -1.34744
C         26.67704        35.34084        -0.98470
C         27.81757        37.33598        -2.02104
C         26.55139        38.09745        -1.69608
C         27.84409        40.28585        -2.09744
C         26.52141        39.53086        -2.01152
C         27.82095        41.73876        -1.84726
C         26.60240        42.42778        -1.74662
C         27.82205        44.56292        -1.39324
C         26.60072        43.86514        -1.55180
C         27.80936        45.98119        -1.17710
C         26.57978        46.70152        -1.20292
C         27.79767        48.81858        -0.77824
C         26.57052        48.12084        -0.98649
C         27.78259        50.20025        -0.39564
C         26.53893        50.86849        -0.34142
C         30.62579        20.82545         2.89799
C         29.46427        21.41371         2.55973
C         30.65631        23.56467         2.09461
C         29.44685        22.69913         1.77836
C         30.58643        24.93053         1.85531
C         29.33962        25.57574         1.50363
C         30.54119        27.70614         1.09763
C         29.30918        26.94971         1.17810
C         30.47805        29.15502         0.85688
C         29.26435        29.76049         0.36977
C         30.47870        31.95356        -0.12298
C         29.19147        31.21142         0.18725
C         30.41671        33.28759        -0.75452
C         29.15957        33.96118        -0.80349
C         30.35155        35.99213        -1.55499
C         29.11646        35.31407        -1.24716
C         30.33857        37.41017        -1.78161
C         29.10181        38.12427        -1.83335
C         30.32194        40.24530        -1.85735
C         29.09547        39.51952        -1.89045
C         30.27653        41.69377        -1.81775
C         29.08062        42.42534        -1.75283
C         30.28891        44.56307        -1.35647
C         29.09368        43.86561        -1.51343
C         30.31004        45.93894        -0.73874
C         29.02916        46.69908        -0.97802
C         30.29839        48.83064        -0.86383
C         29.02540        48.08483        -0.84639
C         30.28114        50.28371        -0.41365
C         28.99993        50.87225        -0.00818
C         30.25507        52.67649         1.06053
C         29.04122        52.06888         0.71105
C         33.12386        19.37223         3.23576
C         33.09240        20.78775         2.90825
C         31.91603        21.47920         2.72222
C         33.11513        23.60656         2.35555
C         31.91232        22.91180         2.40112
C         33.13571        25.06060         2.12137
C         31.79941        25.76634         1.92647
C         33.02543        27.74737         0.93748
C         31.77689        27.10808         1.30349
C         33.02502        29.08192         0.40202
C         31.81948        29.88849         0.51171
C         32.93256        31.82628        -0.69515
C         31.66283        31.06013        -0.43869
C         32.85190        33.12941        -1.16137
C         31.60812        33.89891        -1.17363
C         32.79903        35.99955        -1.88390
C         31.58544        35.29301        -1.54934
C         32.81705        37.38048        -2.06772
C         31.57405        38.11249        -1.94842
C         32.80463        40.28248        -2.10729
C         31.53614        39.53064        -1.97492
C         32.79274        41.66582        -1.55563
C         31.54567        42.42204        -1.86726
C         32.85208        44.55147        -1.25136
C         31.57064        43.91133        -1.62540
C         32.82119        46.02327        -1.27156
C         31.56556        46.73778        -1.02799
C         32.81420        48.87412        -0.71996
C         31.58561        48.10546        -0.85945
C         32.75948        50.20494        -0.22425
C         31.54410        50.86285         0.06505
C         32.76209        52.71993         1.17895
C         31.51017        52.10004         0.76302
C         32.75540        53.83644         2.04874
C         35.38055        19.21420         2.23850
C         34.22756        18.63149         3.01259
C         35.63364        20.68405         2.56613
C         34.42168        21.49765         3.06785
C         35.63787        23.56487         1.88690
C         34.41755        22.94106         2.56747
C         35.42884        24.86672         1.21615
C         34.31154        25.64923         1.44214
C         35.42804        27.61364         0.41540
C         34.22227        26.99330         0.90920
C         35.41180        28.98228        -0.05912
C         34.18851        29.68814        -0.13745
C         35.35693        31.66579        -1.04858
C         34.17592        31.07117        -0.64968
C         35.37173        33.01060        -1.66201
C         34.04337        33.74123        -1.78037
C         35.38056        35.92568        -2.07721
C         34.04371        35.20911        -2.08151
C         35.38203        37.40376        -2.00184
C         34.12006        38.07523        -2.52969
C         35.35702        40.30547        -1.89226
C         34.11189        39.59172        -2.27832
C         35.35096        41.66720        -1.58821
C         34.07296        42.38429        -1.34184
C         35.31959        44.53903        -1.11581
C         34.07179        43.86892        -1.26676
C         35.29574        45.96410        -0.62451
C         34.11535        46.76748        -1.12629
C         35.30602        48.85944        -0.59306
C         34.08343        48.21028        -0.78689
C         35.32588        50.32948        -0.46308
C         34.00625        50.99435        -0.11799
C         35.22852        52.79696         1.15499
C         34.01000        52.21161         0.72908
C         35.19138        53.95411         1.99992
C         33.93195        54.43699         2.43970
C         38.03840        16.51051         2.93564
C         36.79570        17.20944         2.89277
C         37.76469        18.98396         1.48511
C         36.67001        18.43907         2.30519
C         37.85578        20.44806         1.23000
C         36.83554        21.30578         1.89436
C         37.85515        23.23083         0.74259
C         36.82213        22.73372         1.51140
C         37.78106        24.61653         0.21495
C         36.54915        25.42127         0.44856
C         37.93346        27.55727         0.29790
C         36.60332        26.87748         0.32687
C         37.85394        28.90968        -0.34640
C         36.63936        29.57246        -0.48386
C         37.86848        31.68300        -1.05958
C         36.61633        30.86908        -1.24864
C         37.86761        33.07400        -1.28212
C         36.63540        33.79204        -1.61109
C         37.81131        35.96130        -1.56084
C         36.61501        35.18192        -1.72889
C         37.81122        37.35463        -1.61611
C         36.56402        38.07995        -1.84277
C         37.86372        40.24171        -1.67099
C         36.63403        39.55782        -2.20376
C         37.80344        41.66001        -1.29621
C         36.55296        42.42000        -1.41845
C         37.80291        44.57462        -1.12441
C         36.56184        43.83652        -1.19502
C         37.80088        46.01204        -0.95980
C         36.58169        46.72553        -0.77445
C         37.79502        48.80708        -0.35909
C         36.55618        48.11991        -0.59532
C         37.82269        50.17206         0.04089
C         36.63573        51.07422        -0.20065
C         37.69232        52.78488         1.24170
C         36.52647        52.21023         0.81460
C         37.69797        54.20563         1.75958
C         36.40069        54.61740         2.39839
C         37.61145        56.32532         3.65578
C         36.41459        55.73334         3.23982
C         40.62327        15.18973         3.23366
C         40.48838        16.40576         2.53295
C         39.17262        16.99014         2.31662
C         40.29236        18.88211         1.03029
C         39.07147        18.16205         1.43341
C         40.04609        20.06125         0.08627
C         38.95236        21.00620         0.60076
C         40.08815        23.07914        -0.33329
C         39.00750        22.43898         0.33043
C         40.15026        24.51069        -0.46515
C         39.05053        25.31215        -0.11598
C         40.28529        27.41185        -0.51980
C         39.09278        26.72363        -0.19746
C         40.30151        28.84789        -0.60343
C         39.08586        29.56939        -0.62338
C         40.31203        31.69091        -0.76583
C         39.08199        30.99134        -0.84096
C         40.29536        33.10307        -0.86084
C         39.09887        33.77839        -1.16443
C         40.22299        36.01330        -0.87681
C         39.13171        35.22661        -1.60744
C         40.28042        37.43340        -1.39264
C         39.07642        38.09654        -1.57245
C         40.31665        40.27149        -1.44136
C         39.05734        39.55282        -1.57783
C         40.34671        41.68730        -1.42112
C         39.10246        42.43286        -1.16744
C         40.27523        44.60691        -1.37845
C         39.08226        43.91606        -1.25581
C         40.28927        46.12284        -1.45734
C         39.01672        46.73553        -0.93178
C         40.25118        48.72302        -0.13324
C         39.02141        48.08858        -0.50339
C         40.21403        49.99555         0.44651
C         39.01253        50.75657         0.47685
C         40.17837        52.69611         1.65857
C         39.03473        52.24833         0.77438
C         40.15494        53.89506         2.34892
C         38.92217        54.60980         2.55096
C         40.12032        56.38456         3.91874
C         38.86459        55.73142         3.37985
C         40.00866        56.93513         5.31886
C         43.01889        15.31723         3.03703
C         41.87742        14.65501         3.49406
C         42.91944        16.49898         2.29338
C         41.64765        17.07793         2.05138
C         42.75719        19.09485         0.98711
C         41.51562        18.34939         1.33584
C         42.65861        20.31887         0.12241
C         41.32021        20.82119        -0.34622
C         42.59686        22.97034        -1.10736
C         41.27896        22.27751        -0.75058
C         42.62352        24.46425        -1.24987
C         41.34586        25.22315        -0.99418
C         42.70250        27.34197        -1.04885
C         41.48077        26.68636        -0.81747
C         42.75162        28.79278        -0.97695
C         41.54416        29.53118        -0.78449
C         42.79138        31.64248        -0.86962
C         41.56137        30.95721        -0.75134
C         42.90113        33.09334        -0.44481
C         41.51446        33.86267        -0.35042
C         42.78944        35.94596        -1.33317
C         41.52060        35.23053        -1.04454
C         42.75278        37.40901        -1.47504
C         41.55221        38.11227        -1.48663
C         42.75785        40.28333        -1.48153
C         41.54411        39.56447        -1.52913
C         42.77190        41.68381        -1.36253
C         41.56309        42.39798        -1.43763
C         42.82082        44.56269        -1.27466
C         41.55167        43.88127        -1.76961
C         42.81382        46.02390        -0.95357
C         41.53669        46.76520        -0.88035
C         42.75236        48.65107         0.17697
C         41.51486        48.00312        -0.27735
C         42.73459        49.90815         0.78854
C         41.42886        50.51395         1.11060
C         42.68086        52.53724         2.01178
C         41.39742        51.86902         1.73075
C         42.63961        53.77109         2.67742
C         41.37950        54.40980         2.97132
C         42.56997        55.99711         4.43031
C         41.36352        55.54093         3.76759
C         42.43561        56.89931         5.50632
C         41.14998        57.25547         5.99973
C         45.23768        16.19594         1.34482
C         44.21625        17.16923         1.88216
C         45.09622        18.83171         0.23700
C         44.03575        18.35753         0.96286
C         45.09479        20.17649        -0.33213
C         43.90607        20.85459        -0.46322
C         45.17490        22.97525        -0.97047
C         43.89938        22.22764        -1.00439
C         45.15368        24.40453        -1.33824
C         43.90617        25.19026        -1.22677
C         45.21054        27.30338        -1.28753
C         43.93892        26.58682        -1.24361
C         45.20039        28.77495        -1.64229
C         43.95426        29.50827        -1.19246
C         45.20176        31.64607        -1.63899
C         43.96979        30.91654        -1.14076
C         45.26098        33.11604        -1.28973
C         44.06191        33.83536        -1.09150
C         45.29477        35.94620        -1.33675
C         44.07689        35.23868        -1.18372
C         45.31777        37.37186        -1.50921
C         44.03297        38.08118        -1.73403
C         45.31073        40.29487        -1.54827
C         44.03185        39.58436        -1.72121
C         45.32145        41.63845        -1.33240
C         44.05515        42.37798        -0.95668
C         45.29933        44.32848        -1.75460
C         44.08423        43.78410        -1.48324
C         45.29674        46.42042        -1.29671
C         44.05540        46.82651        -0.81522
C         45.25028        48.69885         0.21803
C         44.01668        48.04306        -0.09202
C         45.20272        49.98712         0.83539
C         43.94758        50.59276         1.11903
C         45.13371        52.62796         1.93577
C         43.91092        51.90631         1.70878
C         45.09237        53.88649         2.58401
C         43.86172        54.40254         3.06232
C         45.08735        55.83455         4.63676
C         43.83181        55.46851         4.01693
C         46.22158        16.59227         0.52746
C         47.57740        18.66185        -0.35281
C         46.27293        17.96911        -0.00501
C         47.55501        20.14073        -0.42696
C         46.37836        20.85210        -0.54161
C         47.61132        23.05556        -0.69705
C         46.37070        22.31127        -0.74220
C         47.68638        24.43654        -0.87999
C         46.47275        25.17239        -1.27498
C         47.68735        27.34520        -1.03303
C         46.42501        26.64269        -1.15849
C         47.71375        28.76683        -1.14757
C         46.48950        29.51045        -1.33364
C         47.71605        31.64145        -1.40839
C         46.49807        30.90961        -1.37893
C         47.74046        33.06329        -1.43111
C         46.49200        33.79733        -1.35534
C         47.75412        35.93673        -1.34699
C         46.52065        35.22341        -1.32240
C         47.76020        37.35701        -1.40213
C         46.52091        38.06776        -1.53743
C         47.80948        40.24189        -1.40115
C         46.57082        39.54240        -1.90784
C         47.80828        41.64022        -1.23031
C         46.57923        42.37080        -1.30296
C         47.76540        44.57290        -1.08048
C         46.58241        43.76503        -1.37424
C         47.73420        45.99120        -0.84633
C         46.54754        46.81676        -0.74857
C         47.73252        48.71409         0.33439
C         46.50404        48.06396        -0.04889
C         47.69421        50.03280         0.87086
C         46.42584        50.68957         1.10981
C         47.62849        52.78594         1.68563
C         46.37868        52.01007         1.58226
C         47.60976        54.17738         2.30699
C         46.28785        54.81084         2.73467
C         46.27149        55.44888         4.10156
C         50.03272        18.64617        -0.05157
C         48.85926        18.00231        -0.00849
C         50.13733        20.05111        -0.59267
C         48.85528        20.83084        -0.27951
C         50.13414        23.02429        -0.64613
C         48.85084        22.32072        -0.38494
C         50.13969        24.49762        -0.58833
C         48.92366        25.17918        -0.76170
C         50.14743        27.33853        -0.87426
C         48.91544        26.63441        -0.88125
C         50.17802        28.74958        -1.00666
C         48.95567        29.44909        -1.13069
C         50.18751        31.64394        -1.03594
C         48.99977        30.87655        -1.61304
C         50.26202        33.04695        -1.65696
C         48.96443        33.79034        -1.43813
C         50.22596        35.92710        -1.26788
C         48.98774        35.20263        -1.35459
C         50.22407        37.34657        -1.21443
C         49.00124        38.06904        -1.32806
C         50.21612        40.21526        -0.98240
C         49.00570        39.50548        -1.26467
C         50.19619        41.61691        -0.81253
C         49.00830        42.37818        -0.96393
C         50.21685        44.50063        -0.51497
C         48.98505        43.82116        -0.85150
C         50.23993        45.92993        -0.34713
C         49.03567        46.76329        -0.70762
C         50.16686        48.69568         0.47274
C         48.96354        48.04971         0.11171
C         50.15469        50.04080         0.95482
C         48.91515        50.71149         1.14894
C         50.10331        52.74854         1.88272
C         48.91172        52.07134         1.60050
C         50.05370        54.02889         2.55135
C         48.88653        54.66071         2.84481
C         52.61744        20.16079        -0.01842
C         51.37990        20.80390        -0.15050
C         52.55131        23.05917         0.10986
C         51.39649        22.26016        -0.38247
C         52.58499        24.50894        -0.18070
C         51.40217        25.16563        -0.52900
C         52.66839        27.34458        -0.58484
C         51.44860        26.58053        -1.02591
C         52.66899        28.72793        -0.83996
C         51.46238        29.46306        -1.04846
C         52.68572        31.63196        -1.08332
C         51.49449        30.88327        -1.13764
C         52.69617        33.07180        -1.05654
C         51.48826        33.79954        -1.19794
C         52.70413        35.93088        -1.07646
C         51.47023        35.20786        -1.16722
C         52.70507        37.35688        -1.05265
C         51.46649        38.07231        -1.07033
C         52.70313        40.20095        -0.87273
C         51.45834        39.48068        -0.93182
C         52.70716        41.61399        -0.68401
C         51.42259        42.27075        -0.26097
C         52.65749        44.40727        -0.13397
C         51.42296        43.76573        -0.37794
C         52.61581        45.80404         0.30460
C         51.38900        46.57942         0.09302
C         52.63229        48.67917         0.61697
C         51.42453        47.99362         0.38455
C         52.62928        50.09237         0.92406
C         51.38367        50.74768         1.16407
C         52.59604        52.79107         1.72346
C         51.36978        52.10431         1.60329
C         53.82038        20.84984         0.09075
C         55.09487        23.08228         0.31142
C         53.84878        22.28910         0.33652
C         55.00682        24.50897         0.34964
C         53.82183        25.22341         0.03778
C         55.04882        27.40504         0.05680
C         53.84202        26.66132        -0.14932
C         55.14755        28.75731        -0.32251
C         53.96848        29.41632        -0.90194
C         55.17915        31.65789        -0.57599
C         53.98439        30.93780        -1.05352
C         55.17475        33.09514        -0.67218
C         53.93943        33.79329        -0.97776
C         55.18314        35.95084        -1.20296
C         53.92680        35.20192        -1.06969
C         55.19456        37.40067        -1.05061
C         53.94616        38.08635        -1.02154
C         55.18531        40.26183        -1.30116
C         53.92424        39.50233        -0.99554
C         55.16442        41.68293        -0.81189
C         53.92605        42.33400        -0.59512
C         55.14225        44.46518        -0.19853
C         53.90344        43.73768        -0.24610
C         55.16367        45.86346         0.03842
C         53.93479        46.55029         0.43539
C         55.10107        48.71260         0.41508
C         53.90467        48.01854         0.46785
C         55.18627        50.12990         0.92163
C         53.84031        50.81287         1.04283
C         53.80071        52.15862         1.43878
C         57.54092        23.17610         0.42572
C         56.33939        22.45256         0.31637
C         57.53106        24.54034         0.69164
C         56.23406        25.22648         0.73668
C         57.54500        27.44725         0.51854
C         56.24325        26.76461         0.62118
C         57.55777        28.83100         0.26549
C         56.34245        29.50471        -0.11533
C         57.50529        31.66418         0.28414
C         56.31948        30.93762        -0.20427
C         57.51540        33.18297         0.17309
C         56.35972        33.81344        -0.46045
C         57.68173        35.97698        -0.47711
C         56.50404        35.19259        -0.89795
C         57.65879        37.40369        -0.61964
C         56.44272        38.09893        -0.90862
C         57.64842        40.24954        -0.81960
C         56.44890        39.52475        -0.94120
C         57.63243        41.69088        -0.79304
C         56.38682        42.38351        -0.70443
C         57.58973        44.53584        -0.54244
C         56.37788        43.80002        -0.47133
C         57.57442        45.95900        -0.41668
C         56.34811        46.61959        -0.11978
C         57.48557        48.81105        -0.19810
C         56.32935        48.04847         0.06360
C         57.35200        50.25955        -0.26102
C         56.24822        50.89964         0.18265
C         59.96178        24.62663         1.14838
C         58.75038        25.29647         0.89513
C         60.00049        27.42721         0.82573
C         58.75318        26.72681         0.77270
C         60.01416        28.86514         0.66176
C         58.80203        29.55908         0.39798
C         60.00263        31.71905         0.46247
C         58.80124        30.97582         0.35760
C         60.00767        33.16403         0.31662
C         58.81703        33.88042         0.14300
C         60.04947        36.05843         0.41016
C         58.82018        35.30166        -0.03295
C         60.09205        37.48089        -0.09902
C         58.88362        38.14201        -0.45325
C         60.11785        40.28285        -0.59406
C         58.89120        39.55647        -0.63911
C         60.10466        41.72941        -0.75445
C         58.85676        42.42032        -0.75815
C         60.04972        44.58939        -0.81391
C         58.83659        43.85225        -0.72507
C         60.01764        46.04671        -0.79126
C         58.77566        46.71741        -0.56129
C         59.92955        48.87471        -0.68251
C         58.72913        48.14894        -0.49370
C         61.16430        25.32598         1.24018
C         61.18916        26.70539         1.06054
C         61.20683        29.62199         0.79220
C         61.20742        30.99622         0.67446
C         61.25869        33.89639         0.18696
C         61.29552        35.24595         0.15420
C         61.27951        38.21268        -0.04591
C         61.30462        39.58050        -0.32901
C         61.29012        42.48423        -0.84770
C         61.26240        43.87248        -0.90493
C         61.17754        46.81677        -0.97465
C         61.12659        48.21437        -0.92489
O         35.38963        23.72156         3.33567
O         41.23220        34.06149         1.02042
O         43.20265        22.37161        -2.29823
O         33.42557        40.25720        -3.43690
O         41.20340        50.64984         2.57779
O         31.66420        43.33172        -2.99993
O         27.33052        28.97202        -1.06131
O         48.88945        21.65149         0.93971
O         33.62029        46.50666        -2.45632
O         38.42487        41.93267         0.03213
O         34.58848        32.98586        -2.91075
O         30.30197        49.91766        -1.84469
O         45.92040        24.70608        -2.55570
O         34.73542        35.48012        -3.32772
O         46.76591        18.01702        -1.38498
O         41.13411        21.19568        -1.73489
O         44.02161        38.84253        -3.01246
O         42.76584        20.43793         1.61421
O         57.22914        32.51909         1.45451
O         54.23371        30.06046        -2.19775
O         42.74901        44.93240         0.15011
O         27.13635        39.86161        -3.32316
O         31.25294        29.96204         1.82165
O         45.33143        45.57067        -2.39766
O         34.58101        51.08383        -1.48324
O         25.29461        32.32798        -1.73551
O         53.25857        45.98274         1.61952
O         52.95420        22.69857         1.45452
O         50.95659        22.55760        -1.78711
O         47.62396        54.01375         0.84653
O         41.98406        35.23306        -2.40179
O         33.29563        41.79000        -0.19644
O         29.95327        31.97336         1.22246
O         32.51571        25.81635         3.21077
O         36.80730        20.97246         3.36490
O         56.04544        26.09500         1.90602
O         41.73870        24.84675        -2.36420
O         56.06630        35.45433        -2.26521
O         38.06919        18.08495         0.37810
O         36.78729        24.72881        -0.88149
O         31.34399        30.41801        -1.72151
H         31.53589        31.05108        -2.44636
O         49.18163        30.75211        -3.05043
H         48.37617        30.33663        -3.42386
O         36.98885        51.75203        -1.45613
H         36.13120        51.96490        -1.90249
O         35.06085        45.87351         0.82993
H         35.77384        45.31862         1.21289
O         39.48159        35.20166        -3.01923
H         38.81645        34.65731        -3.49043
O         44.03586        42.43298         0.50346
H         43.48950        43.21261         0.76183
O         43.40118        32.96892         0.91767
H         42.66367        33.34008         1.48850
O         34.56251        21.56649         4.50826
H         35.38747        22.07625         4.67949
O         45.06157        31.63454        -3.10305
H         45.03735        30.68377        -3.38131
O         51.62727        26.44816        -2.49073
H         50.89067        25.89459        -2.82895
O         37.80171        55.01011         0.51690
H         38.51675        54.58736        -0.02443
O         34.97984        19.22771         0.82805
H         35.13363        18.33374         0.45531
O         34.20555        37.91996        -3.97103
H         33.60132        38.59285        -4.36502
O         46.66244        39.57617        -3.37109
H         45.79139        39.24360        -3.70260
O         25.33224        27.22909        -0.85340
H         26.08631        27.63864        -1.34354
O         41.64308        43.94259        -3.22670
H         40.90018        43.42894        -3.60681
O         24.33083        34.15963         1.26846
H         23.55089        34.66914         1.57438
O         45.13318        28.79900        -3.13045
H         44.41365        28.18779        -3.40288
O         27.74091        37.07793        -3.46518
H         27.59843        37.95711        -3.89196
O         38.25181        27.79885         1.73214
H         37.58818        28.43329         2.07932
O         29.59729        22.32032         0.36392
H         30.40597        21.77004         0.29198
O         59.94567        36.18882         1.87577
H         59.85058        35.28262         2.24031
O         39.87033        36.15561         0.50626
H         40.25974        35.36755         0.99934
O         55.68213        49.99963         2.30534
H         55.06267        49.40799         2.78358
O         49.90846        31.79909         0.37768
H         50.65153        32.28911         0.78826
O         36.59983        30.50337        -2.67522
H         35.72543        30.10776        -2.87646
O         25.81948        29.24744         2.20715
H         25.04922        28.90442         2.70847
O         40.32303        57.56365         3.05558
H         41.16431        57.98401         3.33573
O         50.22669        19.92933        -2.04040
H         50.47510        20.82030        -2.39074
O         46.05930        55.90757         1.78982
H         46.33435        55.56640         0.90777
O         39.52903        19.43284        -1.10961
H         39.70587        20.05015        -1.85846
O         39.28534        52.90918        -0.52079
H         38.56455        52.59031        -1.12940
O         51.34506        42.02181         1.20783
H         52.08161        42.52023         1.62439
O         30.35958        45.71330         0.72738
H         29.54966        45.21786         0.97529
O         50.44121        32.91101        -3.09176
H         50.46794        33.80941        -3.48117
O         36.73922        39.58093        -3.66920
H         36.00908        39.01818        -4.02580
O         49.30964        47.23231        -2.08766
H         48.52231        47.73496        -2.38859
O         40.32726        46.47062        -2.89441
H         39.52367        46.09413        -3.31193
O         55.21086        40.36586        -2.78712
H         55.24342        39.44973        -3.13847
O         44.79224        17.73194         3.10918
H         44.19373        18.44559         3.41735
H         23.26101        24.01008         2.75421
H         21.16799        25.32205         2.90679
H         21.05888        27.62802         2.01828
H         20.88252        29.16209         0.77832
H         20.80819        31.50271         0.08022
H         20.82661        33.30915        -0.78946
H         20.78326        35.72754        -1.07035
H         20.73278        37.66304        -0.98767
H         20.69675        40.08167        -1.24727
H         20.69577        41.95142        -1.62053
H         20.70760        44.37720        -1.70404
H         20.72311        46.25418        -1.85578
H         22.84688        49.92798        -1.25017
H         20.74367        48.71119        -1.67255
H         24.76840        22.89034         2.09828
H         24.42262        50.78903        -0.62525
H         26.89204        21.68169         2.10786
H         26.50416        51.93319        -0.07358
H         30.60099        19.84089         3.38578
H         28.52172        20.88361         2.75495
H         30.20702        53.63261         1.59729
H         28.10674        52.55918         1.01778
H         32.23478        18.89494         3.67374
H         31.80700        54.23838         2.42697
H         34.21745        17.56015         3.25660
H         33.87825        55.31114         3.10069
H         38.08356        15.61086         3.56305
H         35.95660        16.76976         3.44848
H         37.56471        57.23488         4.26966
H         35.47513        56.16596         3.61035
H         39.73304        14.65475         3.58838
H         39.02788        57.22647         5.72076
H         44.00805        14.90435         3.27554
H         41.97303        13.71908         4.06095
H         43.32279        57.24108         6.05568
H         41.08589        57.78495         6.96188
H         45.19680        15.14766         1.67323
H         45.07631        56.40087         5.57944
H         46.95737        15.86887         0.14745
H         47.21420        55.71855         4.59871
H         50.95161        18.11288         0.23156
H         48.82250        16.95249         0.31756
H         50.99090        54.45998         2.92946
H         48.89902        55.56356         3.47134
H         52.65906        19.06379        -0.07924
H         52.61299        53.84410         2.03371
H         54.76201        20.29089         0.01201
H         54.74069        52.71654         1.55141
H         58.48897        22.62614         0.35972
H         56.39830        21.35917         0.23617
H         58.15373        50.84130        -0.73841
H         56.16104        51.99152         0.08503
H         59.96930        23.53740         1.28655
H         59.92666        49.97116        -0.62519
H         62.09792        24.78326         1.44166
H         62.15444        27.22528         1.10996
H         62.15967        29.11700         0.99727
H         62.15868        31.53237         0.78659
H         62.19542        33.33368         0.07129
H         62.26418        35.75594         0.05577
H         62.21771        37.72257         0.24740
H         62.26414        40.11152        -0.27293
H         62.26431        41.97809        -0.88193
H         62.21691        44.40986        -0.98261
H         62.14449        46.33230        -1.16414
H         62.04892        48.79394        -1.06965
