         349
 CSIRO Nanostructure Databank - Neutral Graphene Oxide Data Set
C          1.17419         2.09496        -0.65229
C          1.14231         3.46306        -0.40618
C          2.39917         1.42914        -0.78002
C          2.34199         4.20308        -0.30402
C          1.29810         6.19739         0.71385
C          1.39252         7.50093         1.19590
C          2.34041         5.62047        -0.01265
C          2.55475         8.28008         0.93245
C          1.47921        11.50661         0.90596
C          1.47769        12.73677         0.29970
C          2.63059        10.67620         0.83016
C          2.68367        13.27684        -0.25234
C          1.60872        15.51471        -0.68753
C          1.65893        16.76473        -1.22139
C          2.74209        14.62390        -0.67578
C          2.86095        17.26905        -1.97493
C          3.01522        18.76915        -1.96213
C          3.60628         2.12894        -0.65441
C          3.58717         3.51923        -0.42300
C          4.90309         1.38373        -0.85450
C          4.82763         4.26174        -0.22137
C          3.54229         6.43137        -0.43411
C          3.62165         7.82257         0.19117
C          4.81106         5.63505        -0.16677
C          4.81700         8.64716        -0.19056
C          3.77987        11.07504         0.15245
C          3.86295        12.43815        -0.28865
C          4.90658        10.15021        -0.18899
C          5.12858        12.97754        -0.67538
C          4.05860        15.21885        -0.93532
C          4.14547        16.63009        -1.48725
C          5.24457        14.35597        -1.00771
C          5.41636        17.12875        -2.06324
C          4.23415        19.32246        -2.10757
C          5.47364        18.55323        -2.27225
C          6.11168         2.07298        -0.25806
C          6.07841         3.51325        -0.04304
C          7.25600         1.34917        -0.07497
C          7.23800         4.18093         0.28679
C          6.08542         6.38732        -0.12000
C          6.12695         7.87922        -0.18531
C          7.25180         5.65122         0.45588
C          7.39727         8.58625         0.17029
C          6.25886        10.78497        -0.24318
C          6.32825        12.17293        -0.58540
C          7.42916        10.03020        -0.04471
C          7.58473        12.78190        -0.83346
C          6.47082        14.93203        -1.39301
C          6.54419        16.26158        -1.97107
C          7.67403        14.14907        -1.29775
C          7.80432        16.65178        -2.48517
C          6.65203        19.31601        -2.34635
C          7.92262        18.75031        -2.64385
C          8.49727         1.95011         0.43075
C          8.47607         3.45566         0.60400
C          9.79262         1.25752         0.29206
C          9.75428         4.20658         0.40445
C          8.52639         6.40788         0.73177
C          8.53891         7.87901         0.48035
C          9.80944         5.65543         0.68832
C          9.83189         8.57776         0.63955
C          8.70268        10.67726        -0.13602
C          8.77656        12.02458        -0.59185
C          9.90865         9.96145         0.12842
C         10.04718        12.61096        -0.80927
C          8.92340        14.72310        -1.60976
C          9.04067        16.06945        -2.10206
C         10.12692        13.90230        -1.48970
C         10.27146        16.80654        -2.17571
C          9.18584        19.11576        -2.19286
C         10.34146        18.25264        -2.15723
C         11.00543         1.92821         0.39317
C         11.03340         3.41671         0.30740
C         12.24743         1.25064         0.44659
C         12.29358         4.13088         0.58939
C         11.04713         6.27637         0.71744
C         11.13802         7.76131         0.76051
C         12.27380         5.52844         0.71393
C         12.38179         8.37715         0.30332
C         11.15007        10.56813        -0.06196
C         11.23528        11.91912        -0.50963
C         12.39220         9.77609        -0.06141
C         12.48431        12.63366        -0.45638
C         11.47725        14.59886        -1.59063
C         11.52854        16.06427        -1.91522
C         12.55794        13.97431        -0.82149
C         12.75433        16.80249        -1.43958
C         11.56259        18.92546        -1.85036
C         12.76480        18.29186        -1.44369
C         13.48830         1.94253         0.52295
C         13.49844         3.38082         0.65315
C         14.70948         1.24344         0.42999
C         14.75514         4.07769         0.73790
C         13.54959         6.29391         0.96809
C         13.62957         7.56395         0.08729
C         14.78172         5.47281         0.79898
C         14.90901         8.34033         0.40760
C         13.71514        10.51407        -0.19827
C         13.70400        11.97597         0.01343
C         14.97716         9.77975         0.09699
C         14.75065        12.68067         0.56421
C         13.59000        14.78228        -0.22462
C         13.63859        16.12258        -0.47069
C         14.36574        14.13340         0.90588
C         14.42781        17.07712         0.37250
C         13.94333        18.94680        -1.10408
C         15.10149        18.09912        -0.60872
C         15.97088         1.92015         0.39603
C         15.98649         3.34026         0.65223
C         17.16579         1.26850         0.08432
C         17.23619         4.01661         0.82600
C         16.09714         6.17759         0.58956
C         16.04971         7.67773         0.79087
C         17.15560         5.43077         1.39994
C         17.27064         8.40187         1.10677
C         16.22390        10.56595         0.39613
C         16.18758        12.13144         0.46301
C         17.32826         9.77370         0.99991
C         17.29875        12.66974         1.37688
C         15.40847        15.06175         1.47290
C         15.40197        16.39790         1.29369
C         17.34617        13.86830         2.07272
C         16.11396        17.52810         1.98988
C         16.33959        18.77894        -0.04653
C         17.02174        18.32136         1.06609
C         18.40008         2.05625        -0.25224
C         18.40740         3.40409         0.43991
C         19.68446         1.29894         0.00005
C         19.67296         4.15499         0.41087
C         18.48822         6.16381         1.49440
C         18.46206         7.67739         1.73202
C         19.75081         5.48267         1.08363
C         19.80345         8.33499         1.42417
C         18.61639        10.48072         1.09245
C         18.60248        12.00856         1.15531
C         19.84865         9.75662         1.42961
C         19.85018        12.64574         1.58485
C         18.56914        14.58274         2.33973
C         18.57587        15.96751         2.65435
C         19.84057        14.00055         1.97879
C         19.67457        16.78975         2.32241
C         18.36873        18.77386         1.32273
C         19.53806        18.13836         1.84154
C         20.91510         1.93937         0.09296
C         20.95951         3.42301         0.17478
C         22.15893         1.26307         0.05133
C         22.23840         4.10314         0.48839
C         21.01744         6.23660         0.94670
C         20.99671         7.61532         1.22956
C         22.23886         5.53608         0.69662
C         22.33328         8.29361         1.43874
C         21.05479        10.47801         1.50564
C         21.06480        11.92429         1.59322
C         22.30403         9.79617         1.43575
C         22.27498        12.61530         1.81168
C         21.05310        14.71469         2.08116
C         21.03026        16.15505         2.53688
C         22.29007        14.02888         1.91177
C         22.21956        16.92584         2.03572
C         20.75763        18.84756         1.59745
C         22.05951        18.29675         1.67628
C         23.40985         1.95748         0.06297
C         23.42106         3.40039         0.34332
C         24.60077         1.29422        -0.19451
C         24.67396         4.12240         0.24899
C         23.46897         6.24103         0.62296
C         23.41896         7.74421         0.52735
C         24.68384         5.57488         0.37771
C         24.73647         8.45590         0.78281
C         23.50482        10.48073         1.47419
C         23.49792        11.81849         2.17938
C         24.73138         9.79025         1.12433
C         24.82520        12.57316         2.13533
C         23.52727        14.75924         1.85258
C         23.44625        16.17866         1.91277
C         24.87313        14.09742         1.90959
C         24.68962        16.84570         1.90936
C         23.13620        19.14133         1.17653
C         24.45912        18.97567         1.50631
C         25.93994         1.96628        -0.03835
C         25.81834         3.46312        -0.14591
C         27.06842         1.36950        -0.85102
C         26.89123         4.27458        -0.73542
C         25.91033         6.29589         0.26762
C         26.03705         7.68956         0.82971
C         27.02843         5.68489        -0.32330
C         27.21342         8.47577         0.27571
C         25.99936        10.51318         1.21300
C         26.00217        11.72373         1.84645
C         27.10255        10.00004         0.28821
C         27.75240        12.98055         1.17096
C         26.06003        14.91047         1.40017
C         25.89802        16.28815         1.36930
C         27.55772        14.46296         1.26046
C         26.89907        17.24886         0.77559
C         25.68912        19.51875         1.04347
C         26.87610        18.73673         1.06605
C         28.09912         2.09901        -1.35983
C         28.04313         3.58305        -1.38181
C         29.28163         1.50928        -1.96626
C         29.25705         4.37274        -1.64044
C         28.19278         6.41169        -0.66525
C         28.26387         7.82620        -0.33465
C         29.24840         5.77814        -1.42929
C         29.41075         8.59902        -0.88645
C         28.47859        10.72262         0.37725
C         28.38640        12.25622         0.23081
C         29.42007        10.11302        -0.70016
C         29.30897        12.98005        -0.71139
C         28.31976        15.19240         0.16896
C         28.13406        16.68554         0.13110
C         29.11282        14.50498        -0.73066
C         29.34839        17.56003         0.05154
C         28.10043        19.39723         1.13248
C         29.34135        18.81352         0.73285
C         30.32259         2.27511        -2.39452
C         30.34658         3.72308        -2.25615
C         31.40895         4.50722        -2.75556
C         30.27780         6.55294        -2.04269
C         30.18890         8.00566        -1.99284
C         31.34008         5.89618        -2.69797
C         30.87952         8.84776        -2.83376
C         29.85999        10.88106        -1.88612
C         29.29415        12.28549        -2.09522
C         30.62350        10.25478        -2.83866
C         30.04771        13.07996        -3.12237
C         29.97436        15.10061        -1.72647
C         30.51503        17.24649        -0.66516
C         30.36946        14.37907        -2.90336
C         31.68455        18.02706        -0.58381
C         30.53010        19.57753         0.84483
C         31.70388        19.16317         0.22844
O         15.56629        18.12102         2.92790
O         10.96114        13.82255        -2.70687
O         10.35481         3.89951        -0.91255
O          4.24071        16.42291        -0.05415
O          2.57114         9.51474         1.59557
O          6.34265         7.07360        -1.41091
O         27.19147        12.32198         2.26711
O         10.49463         8.38884         1.93525
O         13.10171        10.01179        -1.41651
O         18.77804        11.31165        -0.11637
O         26.98101        17.05910        -0.70354
O         30.39572         9.27574        -0.00496
O         30.58227        16.29095        -1.66718
O         19.30321         5.46331         2.50904
O         16.17780        14.50491         2.51313
O         12.68400        16.29070        -2.81245
O         25.06022        13.46694         3.27071
O          7.60384         6.04444         1.83194
O         26.92015         4.08348        -2.21991
O          7.85162        17.61757        -3.48888
O         24.75039        18.03641         2.56701
O         20.27725         4.13781        -0.93829
O          8.38604         2.59792         1.77886
O         15.96741        10.08834        -0.96894
O          4.63525         9.39415        -1.45073
O         21.18847        16.12088         4.02374
H         22.07073        15.73198         4.20802
O         27.94262        12.18718        -2.58716
H         27.44488        11.51015        -2.06114
O         26.32601         7.49622         2.26595
H         26.34712         8.38471         2.68281
O         16.44545         6.01517        -0.81483
H         15.67987         6.34993        -1.34142
O         23.04056         8.05978        -0.84734
H         23.49075         7.42790        -1.44625
O         16.64534         5.33298         2.74915
H         17.40536         5.08652         3.32169
O         18.33822         2.33027        -1.70314
H         19.02187         3.02248        -1.88027
O         13.72911         7.12924        -1.29727
H         13.63199         7.94011        -1.85093
O         26.59094        10.33540        -1.05160
H         25.69784         9.93620        -1.14687
O          3.47486         6.60247        -1.88642
H          4.29238         7.08412        -2.15451
O         30.66021        12.78038        -0.20599
H         30.63147        12.78138         0.77407
O         26.33751         1.70267         1.37035
H         25.61643         2.03988         1.94451
O         23.30940        11.47762         3.60107
H         23.65028        12.24577         4.11488
O         13.53785         6.80948         2.33569
H         13.72733         6.06715         2.94767
O         17.48057        16.53634         3.21185
H         17.72244        17.40072         3.60430
O         16.57443        12.61676        -0.84929
H         16.43570        11.87598        -1.48676
O         15.63179        17.34470        -1.73916
H         14.92443        17.22007        -2.40811
O         18.28927         7.85912         3.17058
H         18.86062         7.18387         3.60226
O          5.12041         1.21171        -2.27277
H          5.13249         2.09918        -2.68737
O         29.01335        10.45823         1.67835
H         29.75847         9.81777         1.55546
O          2.71139        16.84430        -3.36651
H          1.94527        17.32015        -3.74946
O         22.72139         7.93559         2.80166
H         22.31450         8.58086         3.41754
O         13.46993        17.78444         1.19929
H         13.92633        18.05546         2.03438
O         13.40271        14.00630         2.00915
H         13.92004        13.88108         2.83405
O         28.15404        14.87476         2.52428
H         27.82083        14.24995         3.20748
H          0.23453         1.53434        -0.75296
H          0.17444         3.97799        -0.33179
H          2.41937         0.34810        -0.97797
H          0.41958         5.59267         0.98110
H          0.59531         7.93035         1.81532
H          0.58581        11.12960         1.42051
H          0.56399        13.34423         0.32110
H          0.65846        15.17322        -0.25204
H          0.76000        17.40043        -1.19726
H          2.11734        19.40087        -1.87969
H          4.81302         0.35276        -0.42704
H          4.33045        20.41914        -2.13184
H          7.27636         0.28865        -0.37015
H          6.59134        20.38303        -2.08177
H          9.78708         0.15936         0.21432
H          9.29698        20.10680        -1.72682
H         12.25476         0.15095         0.41066
H         11.54103        20.02637        -1.84899
H         14.68987         0.15327         0.28257
H         14.00096        20.04564        -1.12727
H         17.15708         0.18768        -0.12333
H         16.87923        19.43116        -0.75582
H         19.66056         0.19980        -0.05710
H         18.60436        19.71330         0.78857
H         22.16596         0.17188        -0.09030
H         20.67415        19.87644         1.21457
H         24.58169         0.21052        -0.38807
H         22.86706        19.93827         0.46893
H         27.12493         0.26964        -0.87699
H         25.77804        20.59539         0.83260
H         29.32597         0.41429        -2.06376
H         28.10741        20.46294         1.40341
H         31.19945         1.79367        -2.85286
H         32.26165         4.01878        -3.24835
H         32.14618         6.49127        -3.14940
H         31.51987         8.43715        -3.62674
H         31.00165        10.82290        -3.69987
H         30.28777        12.61940        -4.09051
H         30.93998        14.94283        -3.65562
H         32.56499        17.73113        -1.16771
H         30.50063        20.52438         1.40107
H         32.62144        19.75989         0.31754
