         720
 CSIRO Nanostructure Databank - Neutral Graphene Oxide Data Set
C         23.15661        27.54029         2.24932
C         23.13946        28.93031         2.16853
C         23.27435        31.70797         0.75130
C         23.26881        33.00986         0.42526
C         22.95856        36.10539         0.49332
C         22.83914        37.30511        -0.11235
C         22.84031        40.19014        -0.04427
C         22.91973        41.49512         0.32379
C         23.09015        44.23147         1.37455
C         23.20296        45.45322         2.00551
C         25.54385        24.69172         1.74212
C         24.39346        25.37669         2.01722
C         25.53906        27.54397         1.78557
C         24.35182        26.82368         2.02768
C         25.52197        28.94709         1.75555
C         24.31089        29.66003         1.89423
C         25.55308        31.89162         1.66105
C         24.20345        31.18418         1.84003
C         25.53666        33.38046         1.33254
C         24.15635        34.01783         1.16291
C         25.35780        35.99103         0.02467
C         24.21003        35.38133         0.49698
C         25.34551        37.37113        -0.39780
C         24.00033        37.96291        -0.81326
C         25.26048        40.26994        -0.76417
C         23.95810        39.49958        -0.70517
C         25.28630        41.67046        -0.29288
C         24.12499        42.28204         0.19427
C         25.40962        44.37409         0.59774
C         24.19253        43.63591         0.70476
C         25.50160        45.64740         1.20315
C         24.42674        46.17154         1.96947
C         25.81983        48.03838         2.75763
C         24.59755        47.38253         2.70618
C         28.01731        23.25415         1.03059
C         27.97500        24.69909         1.14425
C         26.78937        25.35295         1.46284
C         28.06150        27.47531         1.99962
C         26.81213        26.85559         1.35017
C         28.06795        28.95127         1.64221
C         26.79952        29.61352         1.39176
C         27.99064        31.88674         1.07379
C         26.75255        31.13345         1.22291
C         27.89925        33.22810         0.64145
C         26.70070        33.93763         0.64028
C         27.88553        36.06291         0.03109
C         26.63605        35.21617        -0.16609
C         27.83412        37.49203        -0.20977
C         26.54167        38.10269        -0.50731
C         27.72386        40.26542        -0.79888
C         26.53945        39.52568        -0.73675
C         27.67783        41.70179        -0.83245
C         26.51423        42.39038        -0.43787
C         27.75996        44.49469        -0.18310
C         26.56712        43.78942        -0.06617
C         27.90598        45.85531         0.35893
C         26.73128        46.44750         1.09981
C         28.19687        48.24709         2.01506
C         26.93007        47.57887         2.02234
C         28.31189        49.59933         2.29954
C         30.39095        23.25783         0.34616
C         29.12767        22.57099         0.67994
C         30.45088        24.75394         0.55162
C         29.22954        25.45943         1.04093
C         30.63321        27.41908         1.72369
C         29.31880        26.74473         1.51975
C         30.62557        28.96161         1.70988
C         29.30479        29.70501         1.63809
C         30.44403        31.74559         0.49249
C         29.26454        31.18862         1.22620
C         30.41973        33.21472         0.13617
C         29.11009        33.92558         0.14408
C         30.34654        36.12885         0.34203
C         29.07907        35.40599         0.18506
C         30.29875        37.62721         0.13112
C         29.01792        38.23658        -0.27067
C         30.20014        40.32409        -0.97058
C         29.02697        39.61977        -0.71055
C         30.15640        41.71727        -1.48592
C         28.86295        42.45336        -1.26050
C         30.19956        44.71588        -0.98707
C         28.89497        43.95502        -0.94006
C         30.42516        45.83575        -0.07892
C         29.29060        46.28115         0.74951
C         30.78110        48.16046         1.76883
C         29.42051        47.48814         1.62532
C         30.69501        49.67379         1.70188
C         29.52272        50.30000         2.06815
C         32.77879        20.57194        -0.80829
C         31.65765        21.25699        -0.52350
C         32.92424        23.19137         0.41767
C         31.63778        22.39891         0.47822
C         32.99067        24.54184         0.71375
C         31.76874        25.35196         0.88376
C         33.14740        26.64669         2.29572
C         31.86004        26.58621         1.48026
C         33.09700        29.35541         1.73183
C         31.83845        29.74517         1.33743
C         32.98197        31.77622         0.29624
C         31.72325        30.96888         0.49224
C         32.93585        33.28109         0.17368
C         31.66067        34.02670         0.22499
C         32.83611        36.18684        -0.08844
C         31.63751        35.40259         0.20201
C         32.80457        37.53328        -0.36272
C         31.58448        38.34755        -0.16121
C         32.78340        40.36307        -1.24982
C         31.53821        39.74112        -0.70379
C         32.76516        41.79994        -1.49216
C         31.44645        42.49359        -1.67887
C         32.76621        44.63527        -1.27537
C         31.46187        43.99804        -1.51384
C         32.86994        45.88549        -0.66886
C         31.70319        46.46554         0.04459
C         33.20011        48.26392         1.02831
C         31.86139        47.59233         0.85931
C         33.06570        49.77856         1.01840
C         31.89659        50.42446         1.37609
C         33.05508        52.60249         1.38345
C         31.89353        51.86914         1.46312
C         35.38257        19.05346        -1.26745
C         35.36204        20.37879        -0.72942
C         34.09326        20.96154        -0.24539
C         35.44273        23.07860         0.23844
C         34.15464        22.39448         0.31303
C         35.45364        24.48606         0.48090
C         34.29564        25.16501         0.83335
C         35.33350        27.43939         0.65532
C         34.51942        26.48495         1.57844
C         35.42841        28.95392         0.60695
C         34.32364        29.84481         1.10247
C         35.52883        31.84536         0.44057
C         34.26517        31.11669         0.61421
C         35.48544        33.33420         0.35731
C         34.18330        34.06509         0.40790
C         35.35200        36.07816        -0.60768
C         34.15250        35.50962         0.01426
C         35.20226        37.36964        -1.30965
C         33.94258        38.16511        -1.08512
C         35.22841        40.27230        -1.65772
C         33.96246        39.63697        -1.32033
C         35.17732        41.72634        -1.98145
C         33.93553        42.48462        -1.70000
C         35.19693        44.71955        -2.07947
C         33.86759        43.95315        -2.08338
C         35.29406        46.07857        -1.41447
C         34.13438        46.57573        -0.63142
C         35.51197        48.45983         0.10446
C         34.28561        47.77283         0.09212
C         35.57354        49.82228         0.77365
C         34.25291        50.57876         0.54532
C         35.51906        52.72787         1.08445
C         34.30010        51.99833         1.07895
C         35.57065        54.11893         1.42310
C         37.82427        18.94167        -1.11292
C         36.56159        18.33436        -1.35542
C         37.82867        20.45088        -1.12199
C         36.58015        21.04550        -0.50147
C         37.93329        23.05995         0.32174
C         36.62604        22.37939        -0.01957
C         37.87968        24.56163         0.16494
C         36.70207        25.22493         0.35075
C         37.80346        27.45745        -0.25777
C         36.57093        26.70276         0.14079
C         37.86638        28.93685        -0.15464
C         36.69729        29.63419         0.14443
C         37.89215        31.78205        -0.22309
C         36.74150        31.08144         0.08109
C         37.94696        33.28520        -0.02128
C         36.64919        34.02365        -0.18735
C         37.73493        35.93608        -1.37696
C         36.54896        35.33105        -0.66583
C         37.72238        37.46495        -1.23524
C         36.44873        38.06398        -1.86012
C         37.71656        40.25441        -1.87759
C         36.42676        39.58054        -1.75561
C         37.76136        41.67673        -2.41190
C         36.43838        42.44917        -2.35690
C         37.79373        44.69735        -2.42081
C         36.47778        43.96807        -2.40632
C         37.81794        46.24862        -2.06512
C         36.63206        46.67844        -1.17795
C         37.98706        48.54933        -0.18956
C         36.68567        47.87194        -0.47398
C         37.97978        50.03696        -0.15182
C         36.69683        50.69797         0.24515
C         37.95176        52.81681         0.59671
C         36.74120        52.10226         0.67867
C         37.95113        54.22114         0.87934
C         36.73190        54.83662         1.29418
C         40.22193        16.06470        -0.97307
C         39.06211        16.78231        -1.05843
C         40.27656        18.93792        -0.87884
C         39.03403        18.22848        -1.01690
C         40.33345        20.33178        -0.80209
C         39.11894        21.09451        -0.68115
C         40.40035        23.15658        -0.31420
C         39.15398        22.41775        -0.29217
C         40.41461        24.55240        -0.21862
C         39.18860        25.31579         0.23573
C         40.35026        27.43914        -0.63063
C         39.08381        26.68256        -0.41901
C         40.33373        28.92109        -0.59305
C         39.12516        29.61790        -0.41590
C         40.32147        31.78500        -0.62531
C         39.14591        31.08394        -0.43448
C         40.40555        33.26727        -0.85471
C         39.08921        33.97747        -0.69660
C         40.29575        36.06917        -1.04703
C         39.04896        35.31508        -0.94862
C         40.26352        37.43534        -1.34544
C         38.99036        38.08874        -1.85363
C         40.17392        40.34351        -1.33791
C         38.91522        39.59416        -1.72075
C         40.21195        41.77178        -1.83230
C         38.99457        42.46188        -2.01572
C         40.28109        44.37158        -2.65611
C         39.02728        43.83920        -2.32376
C         40.31768        46.44471        -2.15279
C         39.16095        46.74250        -1.50205
C         40.49260        48.75926        -0.68568
C         39.26636        47.91618        -0.60111
C         40.48402        50.12401        -0.38822
C         39.24058        50.79231        -0.08664
C         40.42411        52.89997         0.26458
C         39.19600        52.15499         0.22801
C         40.38787        54.26572         0.61385
C         39.16353        54.96741         0.78367
C         40.29256        57.12882         0.43459
C         39.15880        56.40680         0.66068
C         42.67840        16.00805        -0.75442
C         41.49766        16.70201        -0.81521
C         42.78223        18.83441        -1.18944
C         41.54891        18.18910        -0.55685
C         42.82854        20.31240        -0.84330
C         41.61200        21.01922        -0.69690
C         42.86153        23.13999        -0.63302
C         41.62501        22.43314        -0.55328
C         42.86113        24.57255        -0.64629
C         41.63096        25.29659        -0.45582
C         42.79888        27.48411        -1.04181
C         41.62117        26.70382        -0.52174
C         42.81371        28.93179        -0.57453
C         41.60080        29.60743        -0.59051
C         42.69587        31.72532         0.16405
C         41.65469        31.11148        -0.78174
C         42.81660        33.32112         0.24928
C         41.44521        34.04944        -0.01636
C         42.74094        36.04138        -0.98638
C         41.53504        35.41235        -0.70990
C         42.72390        37.44182        -1.33909
C         41.48367        38.16524        -1.39508
C         42.68187        40.28681        -1.55425
C         41.47055        39.58443        -1.54068
C         42.70218        41.73626        -1.66507
C         41.45608        42.44531        -1.90486
C         42.80953        44.57449        -2.53428
C         41.50634        43.79727        -2.30851
C         42.74978        46.05638        -2.06845
C         41.65407        46.81094        -1.74465
C         42.95017        48.91522        -1.23104
C         41.79916        48.03316        -0.84650
C         42.94549        50.29038        -0.93194
C         41.70420        50.91094        -0.44682
C         42.88201        53.07521        -0.15695
C         41.66534        52.27311        -0.12548
C         42.90017        54.32699         0.39041
C         41.64806        54.98931         0.77524
C         42.83682        57.16649         0.09053
C         41.61250        56.52749         0.62929
C         43.93692        16.70087        -0.64053
C         45.33082        18.75657        -0.92160
C         44.03046        18.05188        -0.80913
C         45.34468        20.27520        -0.99456
C         44.05577        21.01038        -0.85242
C         45.37704        23.13046        -1.01750
C         44.07599        22.40975        -0.75975
C         45.31199        24.59320        -0.68969
C         44.10979        25.27434        -0.74220
C         45.37213        27.51872        -0.64284
C         44.12126        26.75534        -0.90949
C         45.35126        28.97205        -0.36768
C         44.06386        29.67462        -0.37816
C         45.25468        31.80849         0.11893
C         44.02509        31.03268        -0.12275
C         45.21662        33.23137        -0.33648
C         44.02844        33.91247        -0.47300
C         45.18949        35.97155        -1.22125
C         44.01580        35.31453        -0.90335
C         45.21684        37.39836        -1.73115
C         43.93031        38.14536        -1.51203
C         45.14516        40.26094        -1.31592
C         43.92517        39.55739        -1.53751
C         45.05598        41.70244        -1.04856
C         43.88628        42.45203        -1.56219
C         45.16152        44.56050        -1.54934
C         43.99305        43.87692        -1.82775
C         45.30229        45.99242        -1.93434
C         44.04537        46.78452        -2.11196
C         45.37226        49.01527        -2.01325
C         43.98952        48.31835        -2.14695
C         45.37637        50.45836        -1.57297
C         44.11730        51.07299        -1.10242
C         45.38812        53.16153        -0.34638
C         44.10115        52.56906        -0.90235
C         45.41007        54.38472         0.24387
C         44.15997        55.13091         0.63420
C         44.01310        56.51761         0.03440
C         47.71421        18.80339        -0.28215
C         46.57046        18.10395        -0.47340
C         47.77730        20.24743        -0.37595
C         46.59871        20.97927        -0.62618
C         47.79103        23.06988        -0.20782
C         46.60497        22.39282        -0.52220
C         47.77095        24.52968         0.07096
C         46.54213        25.29791        -0.28997
C         47.80747        27.40773        -0.28840
C         46.61402        26.77432        -0.34371
C         47.87708        28.86711         0.06623
C         46.54075        29.59721        -0.09769
C         47.92237        31.73063         0.12668
C         46.55802        31.04691         0.18790
C         47.79286        33.22168        -0.30173
C         46.49489        33.81326        -0.79227
C         47.73416        36.07280        -1.26091
C         46.48458        35.26411        -1.26731
C         47.69465        37.46394        -1.22961
C         46.44570        38.16998        -1.28475
C         47.55728        40.32786        -0.72129
C         46.37395        39.57255        -1.13690
C         47.54796        41.69782        -0.50699
C         46.28743        42.44623        -0.62889
C         47.66712        44.59372        -0.80267
C         46.32255        43.92851        -0.85577
C         47.83742        45.96011        -1.40017
C         46.61934        46.71021        -1.81044
C         47.85362        48.88142        -1.13228
C         46.59238        48.20357        -1.59983
C         47.97188        50.37620        -1.16962
C         46.68887        51.14326        -1.21384
C         47.95163        53.21554        -0.47726
C         46.67044        52.35233        -0.30205
C         47.85939        54.41290         0.44291
C         46.66362        54.94801         0.74481
C         50.26404        20.25698        -0.13492
C         49.01541        20.94727        -0.19104
C         50.27748        23.09244        -0.09192
C         49.02361        22.36839        -0.11375
C         50.32304        24.51768        -0.07368
C         49.08593        25.31170         0.26947
C         50.33925        27.38177        -0.55327
C         49.05087        26.58996        -0.58709
C         50.23066        28.78080        -1.15714
C         49.04530        29.58968        -0.58159
C         50.24355        31.68308        -0.95501
C         49.00027        30.94379        -0.61859
C         50.27329        33.16778        -0.96704
C         49.02210        33.94608        -0.72073
C         50.33753        36.07290        -1.03402
C         49.01833        35.34146        -1.27219
C         50.29350        37.55022        -0.83557
C         48.93828        38.25424        -1.01851
C         49.88621        40.25722         0.09542
C         48.77849        39.62410        -0.51195
C         50.00073        41.66165         0.26273
C         48.71777        42.44897         0.09835
C         50.07785        44.58122         0.04985
C         48.95886        43.77103        -0.66113
C         50.32206        45.90626        -0.64295
C         49.14312        46.66514        -1.13475
C         50.46332        48.83706        -1.15304
C         49.13930        48.13673        -0.75532
C         50.42231        50.27624        -0.63174
C         49.20896        50.99543        -0.59838
C         50.42394        52.97110         0.08690
C         49.20737        52.36903        -0.26552
C         51.44999        20.94392        -0.17877
C         52.71339        23.08034        -0.49303
C         51.48607        22.36944        -0.23741
C         52.74103        24.50955        -0.47805
C         51.51763        25.22535        -0.26116
C         52.82163        27.36366        -0.49227
C         51.52679        26.68808        -0.42065
C         52.80050        28.82738        -0.49005
C         51.63057        29.54619        -1.16820
C         52.56897        31.61782        -0.11897
C         51.51431        30.96856        -0.65757
C         52.41746        33.02942         0.32450
C         51.54366        33.85704        -0.56132
C         52.43352        36.00493         0.52245
C         51.54076        35.34419        -0.46691
C         52.34066        37.37331         0.76363
C         51.22274        38.12247         0.17570
C         52.53771        40.36721         1.31856
C         50.85927        39.35615         0.65894
C         52.49595        41.67745         0.77060
C         51.25210        42.35838         0.47518
C         52.58912        44.44379         0.22810
C         51.34436        43.76529         0.22739
C         52.67849        45.90152         0.06187
C         51.54871        46.65780        -0.27390
C         52.83953        48.72059        -0.33738
C         51.63367        48.05484        -0.53515
C         52.92401        50.17655        -0.74670
C         51.64416        50.92024        -0.36689
C         51.62485        52.26178         0.03574
C         54.99237        23.03303        -1.30741
C         53.86435        22.35705        -0.89168
C         55.03859        24.43360        -1.21351
C         53.96876        25.21779        -0.73351
C         55.33729        27.50397        -0.64071
C         54.02462        26.66816        -0.56556
C         55.18318        28.80049         0.20562
C         53.91925        29.53452        -0.15899
C         54.96044        31.63986         0.79028
C         53.95995        31.04637        -0.19901
C         54.65098        32.87969         1.67621
C         53.42210        33.68632         1.19742
C         54.51825        35.91326         2.05505
C         53.36188        35.19204         1.33191
C         54.62333        37.34922         1.77137
C         53.49175        38.06042         1.37444
C         54.91487        40.12596         1.07338
C         53.62991        39.51317         1.27549
C         54.97972        41.53366         0.72341
C         53.76667        42.30038         0.54897
C         55.09152        44.38547         0.18943
C         53.79575        43.69788         0.31460
C         55.14160        45.84769         0.35698
C         53.93748        46.57715         0.19852
C         55.24157        48.67649         0.28450
C         54.00345        48.00057         0.07127
C         55.24988        50.12667         0.17836
C         54.18878        50.83030        -0.26710
C         58.06001        24.81095        -0.12713
C         56.96283        25.53579        -0.61434
C         57.56923        27.46589         0.64340
C         56.60537        26.80326        -0.14805
C         57.63747        28.94425         0.63520
C         56.42943        29.72862         0.10306
C         57.33141        31.76196         1.46985
C         56.16933        31.03417         0.88242
C         57.09921        33.08172         2.11314
C         55.92061        33.73989         1.92356
C         56.99412        35.89742         2.72135
C         55.68668        35.07926         2.64699
C         57.12314        37.24864         2.13807
C         55.88302        38.10766         2.14398
C         57.38798        39.94238         1.01096
C         56.04473        39.39075         1.37164
C         57.42519        41.45085         1.07685
C         56.25133        42.16118         0.75649
C         57.57535        44.31969         0.86005
C         56.36333        43.59607         0.44029
C         57.57792        45.73994         0.83736
C         56.37400        46.50025         0.56578
C         57.67103        48.57859         0.86161
C         56.41641        47.93621         0.58130
C         58.85579        25.39179         0.85403
C         59.54163        27.39681         2.14844
C         58.66016        26.74451         1.19693
C         59.53811        28.73913         2.32279
C         58.74564        29.59814         1.42331
C         59.67352        31.71534         2.54187
C         58.64970        31.07908         1.67507
C         59.46670        32.90435         3.11520
C         58.13089        33.60400         3.11797
C         59.51882        35.69657         2.42409
C         58.27698        35.12022         2.95750
C         59.57199        36.99710         2.05126
C         58.38160        37.82484         1.98733
C         59.68704        39.95190         1.92607
C         58.52707        39.23859         1.68505
C         59.76755        41.34666         1.70711
C         58.65999        42.12038         1.31614
C         59.89735        44.30211         1.57816
C         58.71713        43.58593         1.25493
C         59.93075        45.68382         1.51774
C         58.77918        46.42676         1.16529
C         58.79813        47.85971         1.14952
O         56.22354        25.00319        -1.68657
O         37.02682        50.53333        -1.16469
O         53.27404        35.59073         2.73576
O         36.82210        27.01673        -1.26453
O         33.08900        26.22083         3.44949
O         46.80434        48.47598        -0.16298
O         30.72648        41.93695        -2.81947
O         48.52871        34.04337         0.66370
O         46.78561        44.64938         0.36487
O         29.66897        33.42950        -1.12525
O         41.73128        55.87541         1.94104
O         57.65021        35.86505         4.03773
O         46.52359        34.13172        -2.22065
O         31.76141        39.48770         0.75795
O         26.60856        30.25221         0.05371
O         34.14352        37.38112        -2.34669
O         27.08763        46.85699        -0.30659
O         51.37588        39.82286         1.87406
O         52.10717        29.63242        -2.48798
O         30.34425        24.15935        -0.79378
O         50.00540        38.26772        -2.05631
O         55.92016        43.89897        -0.93138
O         40.28559        45.62012        -3.28642
O         45.29912        42.04373         0.39561
O         30.82932        30.89953        -0.64989
O         58.91155        29.31975        -0.00463
O         50.63409        48.92210        -2.53736
O         33.07659        32.42773        -1.01620
O         45.86881        31.48470         1.42377
O         34.69950        28.12904        -0.43116
O         39.57828        26.80726        -1.76545
O         24.40330        40.10929        -1.96292
O         58.41926        31.85155         0.44979
O         37.06810        44.43584        -3.66653
O         34.22658        35.05467         1.46365
O         30.31027        37.05891         1.48287
O         50.11003        46.08952        -2.08433
O         35.75061        32.66812         1.68401
O         52.27379        34.63440        -1.54219
O         29.43729        30.81848         2.64537
O         54.41123        32.44195         2.98567
O         44.78867        46.29107        -3.28077
O         38.77124        47.82218         0.81235
O         45.43871        19.46893        -2.22109
O         52.15896        33.15114         1.75157
O         44.98627        27.15904        -2.04325
O         30.64623        44.84437        -2.37129
O         29.47494        46.13703         2.22829
O         35.55109        41.95574        -3.40955
O         25.84193        32.86731         2.68898
O         34.12463        21.20066         1.20281
O         46.81575        24.84139         1.14464
O         47.57756        51.13161        -2.37014
O         47.51481        46.14344        -2.81694
O         50.26580        32.43454        -2.22331
O         49.94212        35.62368        -2.35204
O         35.03701        45.91954        -2.89105
O         45.47251        50.04646        -3.00990
O         28.52427        43.45135        -2.25731
O         30.69794        28.21263         2.98320
O         48.00672        53.73629        -1.82277
H         48.12788        52.96496        -2.42735
O         38.13346        22.85454         1.77801
H         37.28361        23.06496         2.22289
O         45.54147        23.11930        -2.48694
H         44.78497        23.60272        -2.88298
O         55.09085        28.36709         1.58676
H         54.76437        29.11790         2.12791
O         55.50432        27.84853        -2.02170
H         55.73779        27.02893        -2.50783
O         54.41029        31.44387        -1.52463
H         53.88510        30.91263        -2.17155
O         37.61446        35.56716        -2.77057
H         38.20572        36.17571        -3.28346
O         37.67552        37.80493         0.16222
H         38.52466        37.55021         0.58112
O         35.45480        26.21753         2.64440
H         34.89411        26.02551         3.44244
O         23.63743        31.60264         3.11208
H         24.35713        31.58510         3.77968
O         40.05281        40.45336         0.13540
H         40.87899        40.86410         0.47043
O         49.88009        28.56817        -2.54852
H         50.68281        28.91218        -3.05156
O         48.90160        26.13059        -1.96029
H         49.13758        26.90448        -2.53794
O         26.96969        27.14935        -0.07120
H         26.17879        26.81756        -0.54478
O         48.15269        28.89120         1.50154
H         48.33070        29.83539         1.75081
O         38.29795        33.41591         1.42182
H         37.47840        33.15515         1.92356
O         37.74619        20.82892        -2.55007
H         37.01948        20.30358        -2.94889
O         46.70963        51.77311         1.03522
H         46.65213        52.50992         1.68142
O         40.82130        33.46382        -2.23485
H         40.11670        33.12225        -2.82353
O         43.48667        48.61965        -3.47444
H         44.07835        48.16803        -4.11705
O         42.12046        47.47958         0.49152
H         41.28375        47.41790         1.00288
O         48.29341        42.73835         1.46821
H         47.43866        43.23806         1.41846
O         43.06251        44.51954        -3.95101
H         42.35413        45.02762        -4.40087
O         23.84750        37.62871        -2.22032
H         24.22354        38.38620        -2.73022
O         48.42526        31.70839         1.48745
H         47.73136        32.10707         2.06101
O         38.01842        41.45370        -3.83739
H         37.59435        42.18443        -4.34036
O         34.10727        50.68875        -0.90606
H         33.31330        51.23270        -1.09201
O         31.20080        47.87033         3.15868
H         30.87790        46.95657         3.34522
O         49.39772        43.42453        -1.97958
H         49.65123        44.26075        -2.44750
O         33.27403        28.62367         2.85462
H         32.38722        28.50902         3.30296
O         49.18491        48.15706         0.69222
H         48.27016        48.03026         1.03334
O         56.68467        30.05880        -1.25843
H         57.57313        30.47966        -1.28480
O         42.32722        31.27788         1.48021
H         42.83253        31.85071         2.10989
O         23.55877        34.25754         2.45113
H         23.47933        33.37801         2.90377
O         49.20617        25.66047         1.65804
H         48.29330        25.77563         2.01096
O         37.62638        46.95232        -3.30137
H         36.86918        46.51816        -3.76330
O         33.40002        43.96341        -3.45129
H         33.56580        44.86335        -3.81118
O         35.80681        49.66962         2.18633
H         35.14125        49.01529         2.52822
O         57.58564        33.31309         4.41882
H         56.78970        33.89825         4.54633
O         43.18332        33.58848         1.62679
H         42.39317        34.01460         2.04961
O         57.56425        39.62773        -0.43370
H         56.93464        40.18993        -0.93612
O         44.30385        55.30176         2.07435
H         43.44178        55.65946         2.40761
O         45.34487        37.28810        -3.19520
H         46.10449        36.69671        -3.38915
O         31.55749        21.81849         1.80921
H         32.41417        21.34618         1.96088
O         42.51909        27.58976        -2.47702
H         43.39849        27.62831        -2.92529
O         39.03757        37.82557        -3.28781
H         38.27503        38.28999        -3.70968
O         39.39003        25.58258         1.66307
H         39.28218        24.72128         2.12949
O         40.87536        34.33109         1.28379
H         39.97562        33.92283         1.39054
O         55.71275        38.51879         3.54725
H         55.62115        37.70312         4.08790
O         43.94893        53.10649        -2.26634
H         44.62185        52.67843        -2.83970
O         36.46492        37.83737        -3.28915
H         35.52102        37.77869        -3.57511
O         41.73590        18.34722         0.88679
H         40.98782        17.90181         1.33698
O         52.97243        50.20552        -2.20202
H         52.14654        49.73813        -2.53813
O         42.68046        18.76282        -2.63174
H         43.55337        19.05137        -2.98993
O         49.63224        44.97960         1.36593
H         49.31323        44.16761         1.83618
O         33.71918        47.92144         2.37136
H         32.93274        47.95713         2.98402
O         27.98316        27.34665         3.43692
H         28.83031        27.69048         3.80359
O         55.30193        34.71508         3.98675
H         54.72957        33.89089         3.88625
O         42.15373        31.30141        -2.13149
H         41.60928        30.76231        -2.74215
O         26.62873        34.81500        -1.57372
H         27.45937        34.32447        -1.75945
H         22.22649        26.99131         2.45412
H         22.19632        29.47461         2.31619
H         22.59718        31.00092         0.24840
H         22.57374        33.38291        -0.34240
H         22.08498        35.62389         0.95475
H         21.84248        37.75509        -0.21969
H         21.92129        39.63587         0.18767
H         22.03643        41.94869         0.79202
H         22.13075        43.70196         1.43313
H         22.34915        45.87207         2.55645
H         25.51205        23.59339         1.76199
H         23.46701        24.82630         2.23540
H         25.92856        48.92030         3.40457
H         23.74948        47.76622         3.29080
H         27.10300        22.68831         1.25438
H         27.41723        50.17808         2.56592
H         29.12120        21.47165         0.67130
H         29.47676        51.39450         2.13764
H         32.74626        19.74939        -1.53854
H         30.70569        20.95730        -0.98697
H         33.00239        53.68105         1.58662
H         30.96172        52.39870         1.69566
H         34.43070        18.53746        -1.45449
H         34.66679        54.63311         1.77523
H         36.50080        17.26190        -1.58698
H         36.73071        55.90340         1.55635
H         40.19148        14.96694        -1.04493
H         38.11478        16.23943        -1.17715
H         40.23032        58.18389         0.13033
H         38.18742        56.91462         0.57900
H         42.68416        14.91053        -0.82675
H         42.73605        58.18145        -0.32429
H         44.83941        16.09217        -0.48529
H         44.90164        57.01426        -0.38268
H         48.61126        18.25587         0.03691
H         46.56064        17.02276        -0.27690
H         48.77815        54.90209         0.79590
H         46.59424        55.84638         1.37460
H         50.28908        19.15971        -0.12027
H         50.45957        54.03846         0.34326
H         52.38509        20.36905        -0.17813
H         52.56091        52.78919         0.26581
H         55.86824        22.49491        -1.69125
H         53.85108        21.26174        -0.94214
H         56.16500        50.67161         0.45011
H         54.28471        51.91965        -0.38469
H         58.26988        23.80543        -0.51335
H         57.72994        49.67492         0.86488
H         59.69787        24.83609         1.29014
H         60.19298        26.76012         2.76569
H         60.14321        29.20177         3.11512
H         60.64959        31.21670         2.63946
H         60.24759        33.34348         3.75458
H         60.40300        35.05153         2.31821
H         60.51841        37.42028         1.68652
H         60.56164        39.44729         2.36125
H         60.72569        41.83733         1.92464
H         60.80716        43.76311         1.87397
H         60.85841        46.22013         1.76374
H         59.74011        48.37701         1.38213
