         344
 CSIRO Nanostructure Databank - Neutral Graphene Oxide Data Set
C          1.21565         3.36352         0.69677
C          0.01185         3.98283         1.01534
C          1.11073         6.14956         1.03845
C         -0.05404         5.37125         1.17591
C          1.11175         7.60738         1.09229
C          0.08681         8.31885         0.51133
C          1.23358        10.47259         0.79427
C          0.15448         9.71844         0.32887
C          1.24486        11.88635         0.65029
C          0.30200        12.59917        -0.18453
C          1.02207        14.83209         0.70226
C          0.23801        13.95243        -0.23902
C          1.25948        16.21720         0.11313
C          0.10099        16.97817        -0.22899
C          1.52469        18.78749        -1.14437
C          0.18167        18.24867        -0.73035
C          1.56083        20.27395        -1.42237
C          0.55633        20.84396        -2.22545
C          1.66112        23.01372        -2.18430
C          0.58205        22.19770        -2.55925
C          1.67456        24.46072        -2.45044
C          0.51258        25.15145        -2.88684
C          1.70066        27.27831        -2.85700
C          0.53015        26.51892        -3.09969
C          1.74303        28.69607        -3.06686
C          3.64496         3.47935         0.24137
C          2.40012         4.12509         0.52459
C          3.51218         6.38680         0.43774
C          2.33516         5.53354         0.70603
C          3.58124         7.75213         0.98109
C          2.35051         8.25834         1.68659
C          3.61342        10.55633         1.89733
C          2.18246         9.85101         1.81670
C          3.55172        12.00133         1.44443
C          2.37002        12.64155         1.13402
C          3.57555        14.90494         1.28461
C          2.30078        14.13231         1.16506
C          3.61980        16.30279         0.83145
C          2.51895        16.89384         0.20900
C          3.72491        19.04901         0.07965
C          2.61056        18.28733        -0.21775
C          3.65889        20.55096        -0.03108
C          2.65033        21.06430        -1.03281
C          3.93846        23.16472        -1.19967
C          2.73857        22.41763        -1.46119
C          4.12993        24.47073        -1.93171
C          2.84427        25.19964        -2.21109
C          4.04316        27.37326        -2.07159
C          2.87028        26.60913        -2.39670
C          4.05733        28.78315        -2.28167
C          2.88139        29.41474        -2.80759
C          6.09085         3.53059         0.02827
C          4.84615         4.18489         0.14135
C          6.08099         6.39214         0.38766
C          4.82613         5.66712         0.13383
C          6.06235         7.76975         0.69109
C          4.80273         8.45741         0.99375
C          6.06367        10.56236         1.40618
C          4.82606         9.83855         1.33952
C          6.07218        11.95084         1.60119
C          4.85645        12.70504         1.15171
C          6.05579        14.90138         1.35597
C          4.87218        14.19587         1.35586
C          6.11127        16.33405         1.24163
C          4.81500        17.10193         1.26939
C          6.12127        19.14769         0.69045
C          4.90655        18.45835         0.63771
C          6.16737        20.55023         0.32180
C          5.00504        21.22062        -0.10817
C          6.25148        23.35161        -0.36474
C          5.03452        22.58482        -0.54303
C          6.33064        24.67847        -0.74361
C          5.20739        25.34171        -1.34306
C          6.24813        27.57719        -0.85041
C          5.18082        26.72034        -1.49543
C          6.37227        28.96535        -1.44213
C          5.23240        29.53904        -2.02565
C          8.55292         3.59076        -0.14885
C          7.31084         4.24913         0.02182
C          8.53006         6.37452         0.34084
C          7.29758         5.67398         0.25489
C          8.51869         7.75094         0.70264
C          7.31135         8.44575         0.88301
C          8.52850        10.54293         1.36178
C          7.32640         9.85317         1.26232
C          8.63961        11.94147         1.92819
C          7.31639        12.70256         1.86962
C          8.60050        14.90212         1.38937
C          7.32566        14.19067         1.65087
C          8.58815        16.30451         1.25325
C          7.32624        17.02492         1.20181
C          8.58004        19.15747         1.05626
C          7.35039        18.46011         1.01880
C          8.59166        20.60369         0.89140
C          7.39735        21.25251         0.50049
C          8.62801        23.48349         0.61636
C          7.35214        22.71399         0.38804
C          8.74191        24.83171         0.05712
C          7.65386        25.39139        -0.80604
C          8.73896        27.60464        -0.55247
C          7.57848        26.88622        -0.72625
C          8.75671        29.04843        -0.77832
C          7.57297        29.67170        -1.26579
C         11.07776         3.59272        -0.43280
C          9.75914         4.30579        -0.18772
C         10.95283         6.50205        -0.24743
C          9.75093         5.69131         0.03635
C         10.97805         7.92365         0.18830
C          9.83749         8.38224         1.08015
C         10.94519        10.59340         1.01656
C          9.76670         9.87826         1.13106
C         10.95413        12.03995         0.98344
C          9.81975        12.72437         1.35220
C         11.04053        14.88731         1.20044
C          9.81663        14.18308         1.32224
C         11.06117        16.29261         1.17083
C          9.82467        17.01439         1.17519
C         11.06876        19.13513         1.21007
C          9.81988        18.44444         1.17690
C         11.05813        20.61569         1.52235
C          9.81124        21.33384         1.05140
C         11.07145        23.47664         0.99550
C          9.86522        22.73294         0.89688
C         11.09835        24.88205         0.73054
C          9.92099        25.53583         0.19478
C         11.14613        27.66062         0.02624
C          9.97101        26.93604        -0.16394
C         11.16865        29.08606        -0.24157
C          9.96574        29.73953        -0.63792
C         13.40692         3.78245        -1.39411
C         12.07227         4.45591        -1.24044
C         13.34203         6.59426        -0.88537
C         12.21278         5.86407        -0.69097
C         13.40142         8.09312        -0.60838
C         12.28695         8.62094         0.31587
C         13.37822        10.74817         0.96244
C         12.20427         9.90934         0.80399
C         13.46587        12.03268         0.54893
C         12.16404        12.80401         0.44304
C         13.60672        14.85646         0.99034
C         12.32259        14.08674         1.27286
C         13.55591        16.29037         1.13340
C         12.33101        16.99945         1.13749
C         13.53154        19.19557         0.90164
C         12.27760        18.44148         1.13982
C         13.55091        20.67937         0.99348
C         12.33009        21.35232         1.15475
C         13.54087        23.48151         1.18155
C         12.32601        22.76685         1.15297
C         13.48418        24.95383         1.48047
C         12.29057        25.62279         0.84867
C         13.54773        27.73334         0.65532
C         12.33428        27.00002         0.51441
C         13.58098        29.12981         0.28498
C         12.37962        29.77732        -0.11808
C         15.77819         3.87406        -2.00086
C         14.52269         4.50863        -1.67070
C         15.73752         6.72590        -1.80396
C         14.40406         6.01420        -1.82026
C         15.87039         8.03836        -1.30659
C         14.83261         8.59472        -0.44151
C         16.23174        10.63809        -0.06860
C         15.18443         9.70242         0.28473
C         16.09561        12.00677         0.06379
C         14.74043        12.75860         0.13378
C         16.09275        14.85129         0.66235
C         14.78812        14.15731         0.74669
C         16.12761        16.31476         0.95872
C         14.84827        17.03107         1.42736
C         16.08150        19.28385         1.20355
C         14.82734        18.46757         0.94068
C         16.03160        20.65937         0.52289
C         14.76280        21.40065         0.87870
C         16.01704        23.56869         1.09426
C         14.77365        22.81013         1.04029
C         16.01557        24.94134         1.30034
C         14.78240        25.68302         1.26949
C         15.98869        27.86130         1.19761
C         14.74900        27.06360         1.05863
C         16.02306        29.23679         0.65527
C         14.80058        29.83774         0.27506
C         18.12590         3.93130        -2.73493
C         16.87739         4.59591        -2.39302
C         18.06300         6.77583        -2.55724
C         16.87780         6.05445        -2.30286
C         18.15094         8.12570        -2.16490
C         17.11683         8.70996        -1.42157
C         18.44797        10.84954        -1.22527
C         17.45409         9.93318        -0.58424
C         18.41914        12.23225        -0.89936
C         17.24958        12.84456        -0.28814
C         18.42609        15.02014        -0.28689
C         17.23944        14.22270        -0.05679
C         18.46730        16.41617         0.00673
C         17.16458        17.14727         0.21388
C         18.49098        19.25178         0.60757
C         17.32412        18.54609         0.74453
C         18.50049        20.71490         0.78440
C         17.31609        21.41029         0.80882
C         18.56998        23.58888         0.98674
C         17.28483        22.89624         0.60628
C         18.57364        24.97625         1.20273
C         17.30853        25.64205         1.69422
C         18.54402        27.85710         1.14184
C         17.29004        27.15415         1.47844
C         18.49298        29.24889         0.84609
C         17.24175        29.90767         0.60788
C         19.24278         4.61199        -3.05587
C         20.54169         6.70072        -2.54396
C         19.28471         6.11262        -3.17176
C         20.60981         8.00527        -2.24977
C         19.41065         8.88484        -2.53127
C         20.56851        11.11316        -2.36084
C         19.49069        10.29161        -1.97024
C         20.62241        12.43313        -1.95006
C         19.55543        13.01975        -1.22554
C         20.80040        15.14389        -0.88178
C         19.59923        14.40042        -0.80440
C         20.84793        16.46290        -0.48637
C         19.67114        17.14174        -0.07694
C         20.88979        19.30796         0.17829
C         19.71997        18.57420         0.22654
C         20.91861        20.70425         0.44472
C         19.77377        21.42018         0.73549
C         20.99568        23.58636         1.05380
C         19.78745        22.87131         0.91829
C         20.99770        24.97139         1.14088
C         19.79206        25.69780         1.21698
C         20.96374        27.91364         0.99880
C         19.77960        27.16856         1.15832
C         20.92323        29.29737         0.79159
C         19.70785        29.95982         0.68445
O          2.70707        14.65486         2.48233
O         16.54930        27.81366         2.57223
O          1.55245        10.06856         3.03552
O         16.60993        15.40974         1.98129
O         14.48495        10.05594         1.43628
O         10.58393         7.63716        -1.19590
O          4.02377         6.25159        -0.94086
O          7.60641        23.38939         1.68804
O          7.23809        13.62374         3.02682
O         14.20131        18.67759        -0.35134
O         14.55415        13.05242        -1.29779
H         13.63058        13.39377        -1.41111
O         13.86461         6.23183        -3.16253
H         13.06146         5.66197        -3.24469
O         12.45365        13.63843         2.65192
H         12.48896        14.43008         3.22856
O         11.50590         4.59934        -2.59030
H         10.73571         5.20538        -2.52216
O         11.87604        13.19587        -0.92704
H         11.66116        12.38577        -1.43605
O          1.81991        18.16071        -2.44881
H          1.76225        17.18962        -2.32179
O         19.37194         9.07621        -3.99162
H         18.55349         9.57412        -4.20209
O          4.56015        17.36831         2.70570
H          3.75496        17.92699         2.76136
O          5.78029        27.78163         0.53355
H          6.42606        28.37362         0.97508
O         17.37515        25.43736         3.14097
H         16.88151        26.18713         3.54956
O          3.11644        20.96173         1.28883
H          3.18146        21.93971         1.34091
O          0.18094        15.02501         1.87403
H          0.79271        15.12715         2.64016
O         16.16182        19.52946         2.62527
H         15.89475        18.69631         3.08701
O          4.64749        24.06475        -3.26332
H          4.96705        24.87699        -3.71128
O          8.94954        11.73067         3.33633
H          8.57847        12.50693         3.81957
O         16.56865        17.31055        -1.12262
H         17.09542        17.98118        -1.60781
O         11.01084        20.66127         2.99436
H         10.94534        21.60371         3.26002
O         10.86873         2.37369        -1.14443
H         10.86141         2.60464        -2.09980
O         13.01142         8.71230        -1.88398
H         12.12842         8.33272        -2.11786
O         17.19234        23.06394        -0.86493
H         16.71861        22.27029        -1.21741
O          4.91368        12.58571        -0.34756
H          4.97020        11.62876        -0.56584
O          3.90845        10.64480         3.30949
H          3.00121        10.57431         3.74139
O          8.10683        25.10559        -2.20131
H          8.94710        25.59543        -2.33717
O         14.93375        17.10545         2.88469
H         15.43232        16.29708         3.16400
O         13.24763        25.03396         2.94357
H         13.28243        25.98276         3.19177
O         10.17772         7.90389         2.41939
H          9.60868         8.37795         3.06259
O         16.02631        20.49194        -0.93037
H         15.27845        19.86821        -1.13339
O          2.48168         7.79630         3.04423
H          2.01934         8.51625         3.57254
O         18.14269         9.37385         0.59508
H         18.37340        10.12359         1.18378
O         19.32656         6.40898        -4.59480
H         19.39693         7.39479        -4.67121
H          1.25889         2.27213         0.57205
H         -0.89698         3.37773         1.13990
H         -1.00824         5.85426         1.42736
H         -0.78090         7.77730         0.10547
H         -0.67385        10.20464        -0.20567
H         -0.36970        12.01758        -0.83257
H         -0.48697        14.43260        -0.91353
H         -0.88427        16.53121        -0.02975
H         -0.73313        18.81686        -0.95122
H         -0.27342        20.21767        -2.58177
H         -0.24549        22.61231        -3.15103
H         -0.41890        24.59725        -3.06633
H         -0.37737        27.03071        -3.45153
H          0.84258        29.20154        -3.44534
H          3.66430         2.38083         0.18206
H          2.90013        30.50106        -2.97854
H          6.11345         2.43297        -0.04215
H          5.25452        30.59942        -2.32200
H          8.57422         2.50430        -0.31647
H          7.62383        30.72588        -1.58017
H         11.53177         3.33535         0.56216
H          9.99658        30.81924        -0.84873
H         13.44039         2.68243        -1.37531
H         12.41410        30.85161        -0.35362
H         15.82541         2.77441        -1.97513
H         14.80519        30.88496        -0.06316
H         18.13893         2.83053        -2.70395
H         17.26173        30.96083         0.28870
H         20.16333         4.06520        -3.31245
H         21.40945         6.04285        -2.37912
H         21.52187         8.45335        -1.82679
H         21.37620        10.69095        -2.97459
H         21.48988        13.04102        -2.23876
H         21.72330        14.66420        -1.23259
H         21.80681        16.99422        -0.53620
H         21.84252        18.82837        -0.08275
H         21.88730        21.21566         0.36254
H         21.95723        23.05539         1.05010
H         21.96289        25.49383         1.17795
H         21.94190        27.41667         1.03706
H         21.86360        29.85491         0.68020
H         19.67741        31.03808         0.47300
