         344
 CSIRO Nanostructure Databank - Neutral Graphene Oxide Data Set
C          1.32215         3.52086         1.00684
C          0.12510         4.15749         0.59675
C          1.35909         6.29859         0.24013
C          0.09203         5.49675         0.30228
C          1.22546         7.79532         0.46733
C          0.04319         8.48634         0.35868
C          1.16820        10.67211         0.21087
C          0.01416         9.91100         0.27069
C          1.14765        12.11140        -0.07969
C         -0.06631        12.81467        -0.29905
C          1.11209        14.90118        -0.79814
C         -0.08392        14.15224        -0.65359
C          1.11577        16.32264        -1.09673
C         -0.09067        17.05221        -1.22642
C          1.10396        19.18955        -1.35863
C         -0.09252        18.43295        -1.32467
C          1.06851        20.61918        -1.22337
C         -0.07391        21.32599        -0.81973
C          1.12884        23.47535        -0.69566
C         -0.05136        22.70869        -0.61646
C          1.13294        24.90939        -0.39013
C         -0.06217        25.58376         0.00187
C          1.15091        27.67107         0.28428
C         -0.05700        26.92665         0.30604
C          1.17580        29.04416         0.66339
C          3.69852         3.65515         1.90288
C          2.48196         4.29217         1.26094
C          3.66008         6.47929         1.46307
C          2.47495         5.65924         1.03004
C          3.63780         7.87504         0.88197
C          2.46446         8.53750         0.57601
C          3.62894        10.70728         0.30224
C          2.44991         9.99490         0.36668
C          3.64383        12.12916        -0.09520
C          2.35071        12.83570        -0.21983
C          3.56709        14.96961        -0.60044
C          2.33876        14.21686        -0.56540
C          3.56196        16.33435        -0.99811
C          2.35152        17.03340        -1.22392
C          3.57529        19.19014        -1.47548
C          2.36413        18.47864        -1.42044
C          3.61755        20.65417        -1.57840
C          2.28295        21.41128        -1.45300
C          3.59637        23.48228        -1.00713
C          2.34613        22.82107        -1.04056
C          3.59451        24.99345        -1.00524
C          2.32710        25.63454        -0.47381
C          3.58397        27.75198        -0.04385
C          2.36386        27.01916        -0.10585
C          3.59751        29.08148         0.41759
C          2.36417        29.73103         0.73291
C          6.19294         3.62216         1.37435
C          4.98325         4.32360         1.45731
C          6.19259         6.40052         1.11009
C          4.96881         5.72023         1.26890
C          6.19276         7.87699         1.01718
C          4.90151         8.62042         0.89825
C          6.14640        10.76840         0.71675
C          4.94329         9.96995         0.20450
C          6.17089        12.25525         0.58127
C          4.92383        12.94101         0.02791
C          5.81649        15.31164         0.21352
C          4.76314        14.41705        -0.06479
C          6.04194        16.48830        -0.51549
C          4.85922        16.99609        -1.20595
C          6.11716        19.25027        -1.22297
C          4.86801        18.51691        -1.48564
C          6.08339        20.65822        -1.21691
C          4.86700        21.38212        -1.28625
C          6.09752        23.51794        -0.86323
C          4.83463        22.79863        -1.11452
C          6.10486        24.88404        -0.50770
C          4.79514        25.59349        -0.26383
C          6.10138        27.69117         0.19214
C          4.88276        27.11472        -0.49060
C          6.06139        29.06716         0.59883
C          4.84621        29.74994         0.64906
C          8.68188         3.59495         1.09083
C          7.42192         4.29881         1.19272
C          8.72798         6.45832         1.24510
C          7.41700         5.71140         1.10086
C          8.71144         7.84838         0.68122
C          7.40030         8.54324         0.39694
C          8.65214        10.65555         0.10183
C          7.48851        10.01453         0.84294
C          8.63992        12.08141        -0.13582
C          7.51235        12.85769         0.31138
C          8.63619        14.98058        -0.32371
C          7.67783        14.23816         0.38855
C          8.58216        16.40613        -0.50760
C          7.32161        17.14367        -0.63366
C          8.59327        19.24605        -1.02891
C          7.34032        18.51515        -1.02937
C          8.59861        20.63755        -1.08310
C          7.36434        21.41883        -1.43536
C          8.53515        23.46969        -0.54108
C          7.33169        22.82771        -0.90542
C          8.53683        24.84823        -0.17404
C          7.30892        25.55810        -0.17996
C          8.52527        27.62044         0.58393
C          7.28977        26.97055         0.19873
C          8.48944        29.02671         0.93375
C          7.29833        29.70510         0.95511
C         11.11381         3.42712         0.53719
C          9.87674         4.24543         0.84825
C         11.12823         6.35488         0.49873
C          9.94013         5.67554         0.79699
C         11.14700         7.79582         0.34741
C          9.86841         8.50901         0.36784
C         11.04706        10.55092        -0.51260
C          9.80108         9.91359        -0.04736
C         11.03383        12.02411        -0.84352
C          9.76774        12.74251        -0.62832
C         11.08901        14.93730        -1.03467
C          9.74197        14.18964        -0.86158
C         11.07178        16.37472        -0.74329
C          9.81978        17.07702        -0.68735
C         11.04282        19.19410        -0.73069
C          9.84545        18.52385        -0.80074
C         11.10401        20.63748        -1.12394
C          9.81268        21.37676        -0.87112
C         11.01402        23.34686         0.04979
C          9.77824        22.72219        -0.55206
C         11.00144        24.84960         0.14250
C          9.77602        25.52990         0.18164
C         10.96207        27.57864         1.14591
C          9.72994        26.90889         0.57201
C         11.00772        29.05443         0.72958
C          9.76112        29.79850         1.23923
C         13.61315         3.53970         0.50888
C         12.40471         4.21833         0.50704
C         13.60061         6.35549         0.26461
C         12.38260         5.64134         0.39666
C         13.60223         7.79007         0.09345
C         12.33392         8.47400         0.10241
C         13.54861        10.67309        -0.38460
C         12.30552         9.97989         0.10486
C         13.53178        12.03646        -0.56215
C         12.30448        12.78413        -0.72197
C         13.56768        14.91822        -0.78914
C         12.33001        14.16977        -0.82573
C         13.54314        16.35235        -0.78287
C         12.30189        17.04256        -0.64389
C         13.57756        19.21006        -0.56590
C         12.29030        18.49643        -0.26218
C         13.57860        20.65825        -0.55250
C         12.34820        21.35140        -0.69219
C         13.56230        23.58241        -0.41873
C         12.27680        22.80034        -0.58573
C         13.48375        24.82331         0.33417
C         12.25455        25.50224         0.45336
C         13.47491        27.56608         1.04219
C         12.26175        26.87286         0.85764
C         13.46426        29.01684         1.24070
C         12.29148        29.72242         1.14995
C         16.08964         3.54040         0.37661
C         14.85322         4.22895         0.38461
C         16.06728         6.36543         0.11452
C         14.84156         5.65429         0.24909
C         16.06487         7.79740        -0.01851
C         14.80939         8.48566        -0.07187
C         16.05903        10.69711        -0.29161
C         14.81722         9.89642        -0.61214
C         16.06779        12.05722        -0.41702
C         14.78529        12.82505        -0.25707
C         16.02934        14.92429        -0.87340
C         14.79675        14.24186        -0.74062
C         16.01867        16.36710        -0.96299
C         14.78186        17.06292        -0.80702
C         16.04263        19.18825        -0.58257
C         14.78327        18.50073        -0.68214
C         16.03207        20.59464        -0.02376
C         14.77617        21.35172        -0.33949
C         16.04398        23.47132         0.12048
C         14.87790        22.83544        -0.59479
C         16.00372        24.74836         0.61700
C         14.69176        25.36925         1.03834
C         15.93994        27.53246         1.28242
C         14.71272        26.87443         1.04798
C         15.92450        28.98706         1.42804
C         14.73078        29.67620         1.43693
C         18.56253         3.53804         0.23707
C         17.30149         4.22889         0.24544
C         18.52778         6.37005        -0.00769
C         17.29902         5.65999         0.11521
C         18.52743         7.80086        -0.09756
C         17.29162         8.49792        -0.09278
C         18.57366        10.68568        -0.31762
C         17.31282         9.98817         0.13061
C         18.55119        12.09219        -0.53627
C         17.30744        12.80821        -0.52043
C         18.49660        14.87481        -1.21561
C         17.25920        14.19107        -0.80459
C         18.47126        16.40685        -1.41654
C         17.23704        17.10440        -1.03530
C         18.53803        19.20166        -0.36511
C         17.24357        18.49806        -0.72814
C         18.52482        20.69289        -0.74379
C         17.28011        21.39904        -0.28775
C         18.53821        23.44257         0.29705
C         17.29553        22.75008        -0.01210
C         18.47348        24.75403         0.83008
C         17.23358        25.43971         0.97014
C         18.42422        27.56567         1.75458
C         17.17154        26.82034         1.31367
C         18.37965        29.03374         1.38884
C         17.18211        29.69477         1.39281
C         19.74116         4.22242         0.12256
C         20.96925         6.37485        -0.07177
C         19.76050         5.65395         0.00816
C         20.97004         7.76364        -0.16624
C         19.77424         8.50947        -0.18565
C         20.99545        10.68720        -0.53846
C         19.77863         9.96084        -0.34039
C         21.00302        12.04987        -0.69444
C         19.78789        12.80698        -0.73278
C         20.97671        14.99525        -1.00131
C         19.78064        14.19712        -0.99406
C         20.98719        16.34334        -1.16211
C         19.78966        17.17713        -1.56723
C         20.93721        19.29443        -0.90977
C         19.79545        18.55040        -0.91408
C         20.96998        20.65808        -0.44943
C         19.80846        21.38777        -0.30074
C         20.99102        23.45639         0.49432
C         19.77468        22.75229         0.15512
C         20.98180        24.69858         1.03231
C         19.70759        25.37112         1.45622
C         20.77866        27.59384         0.91020
C         19.69760        26.87739         1.31087
C         20.75673        29.03647         0.85114
C         19.60976        29.72714         1.09950
O          5.62340         8.55386         2.18896
O          5.04882        17.51742        -2.54671
O          6.75315        14.93215         1.17594
O         18.31167        15.49947        -2.55489
O          2.90989        21.17018        -2.75698
O         10.25951        14.57287        -2.17731
O          5.90960        11.61685         1.88557
O         12.78693        23.61610        -1.69564
O          4.54100        12.35812        -1.27586
O         11.07642        10.97077        -1.89786
O         11.22080         2.31407         1.43377
H         11.27883         2.66381         2.34639
O          1.79784         6.22105        -1.18595
H          1.85973         5.26845        -1.41421
O         18.48432        20.74469        -2.19805
H         18.33702        21.67538        -2.46761
O         12.19755        10.36347         1.52577
H         12.81749         9.80405         2.03977
O         14.68749        13.00247         1.21504
H         14.72352        12.10863         1.62075
O         15.24467        22.92165        -2.01442
H         14.39730        23.05240        -2.50651
O          9.86434        30.07632         2.63942
H         10.10208        29.23195         3.08720
O         14.54508        24.98228         2.46343
H         15.27420        25.41842         2.95519
O          3.59955         3.81761         3.33079
H          3.54551         4.78967         3.50218
O         10.81523        27.54053         2.60889
H         11.03251        26.63230         2.90872
O         18.40359        27.53280         3.22236
H         18.76399        26.65198         3.48888
O          5.12283         9.71820        -1.20863
H          4.96226        10.57210        -1.67926
O          5.09880        27.45025        -1.88467
H          4.47101        26.91807        -2.42922
O         10.96952        29.06197        -0.72270
H         11.16194        29.97093        -1.03291
O          3.67916        25.33708        -2.42713
H          3.00709        24.80661        -2.90559
O          8.90020         6.65187         2.70309
H          8.35642         7.42867         2.96162
O          4.50328        25.38949         1.14834
H          5.22943        25.79643         1.66702
O         12.20299        18.51836         1.22687
H         13.06501        18.20297         1.57446
O         17.31612        10.12776         1.61504
H         18.15413         9.73025         1.93684
O         18.60797        19.16064         1.10225
H         18.73842        18.22858         1.37655
O          7.43778        21.57501        -2.90716
H          7.44229        20.67472        -3.29828
O         19.97141        17.43521        -2.98981
H         19.58492        16.66010        -3.46027
O         11.06856        22.86090         1.43639
H         10.23079        23.11401         1.87795
O         16.05960        20.38976         1.44673
H         16.93471        19.96793         1.64135
O         11.22482        20.62774        -2.60629
H         11.19003        21.56154        -2.90899
O          7.86659         9.99409         2.23512
H          7.34841        10.70716         2.67970
O          3.55372         6.67043         2.92650
H          4.27858         7.29819         3.16549
O          7.24197         8.42697        -1.03480
H          7.98700         8.89462        -1.46881
O         14.88470         9.69210        -2.07707
H         14.64802        10.53961        -2.51132
O         19.58193        25.09790         2.91135
H         19.52378        24.12402         3.01760
H          1.32908         2.44129         1.21076
H         -0.79713         3.56175         0.52918
H         -0.84338         5.94941        -0.05592
H         -0.91339         7.95174         0.27582
H         -0.96981        10.38669         0.15797
H         -1.02631        12.28963        -0.20377
H         -1.05742        14.63208        -0.82214
H         -1.05617        16.53030        -1.19331
H         -1.05995        18.95174        -1.36459
H         -1.02061        20.79433        -0.65235
H         -0.99493        23.19144        -0.33142
H         -1.01084        25.03435         0.05834
H         -0.99066        27.42903         0.59784
H          0.23043        29.53871         0.93014
H          3.72301         2.55716         1.69017
H          2.38274        30.78087         1.05956
H          6.19512         2.52921         1.50405
H          4.83000        30.80018         0.97711
H          8.67445         2.49564         1.13800
H          7.28315        30.77270         1.22127
H         10.97507         2.98333        -0.49042
H          9.70363        30.79255         0.71782
H         13.61400         2.44381         0.60370
H         12.30366        30.81927         1.24885
H         16.09571         2.44455         0.47511
H         14.73881        30.77235         1.53401
H         18.56306         2.44201         0.32869
H         17.15745        30.78606         1.24514
H         20.69932         3.68230         0.12336
H         21.92425         5.83013        -0.05693
H         21.93888         8.27715        -0.22643
H         21.95406        10.15231        -0.56306
H         21.96493        12.55802        -0.84405
H         21.93525        14.49525        -0.79950
H         21.95920        16.85740        -1.14457
H         21.88128        18.86292        -1.27283
H         21.95521        21.11449        -0.27804
H         21.95753        22.97510         0.28789
H         21.93543        25.17577         1.29979
H         21.71264        27.08782         0.62549
H         21.68122        29.56517         0.58099
H         19.58406        30.82322         1.00595
