         324
 CSIRO Nanostructure Databank - Neutral Graphene Oxide Data Set
C          1.34541         3.48611         1.54036
C          0.21763         4.22377         1.81911
C          1.19721         6.30712         0.97086
C          0.15675         5.62716         1.58366
C          1.20633         7.74669         0.78238
C          0.04400         8.51814         0.90529
C          1.19755        10.67647         0.66938
C          0.02880         9.92402         0.79809
C          1.22686        12.11675         0.63185
C          0.07155        12.89099         0.79639
C          1.12704        15.02359         0.15812
C          0.02934        14.28680         0.61001
C          1.13899        16.45082         0.00154
C          0.16836        17.23687         0.62449
C          1.33999        19.32126         0.07236
C          0.26607        18.63269         0.65302
C          1.39996        20.83054         0.16935
C          0.02525        21.47685         0.11347
C          1.08584        23.63833        -0.38265
C         -0.10800        22.78452        -0.13471
C          1.14103        24.98379         0.24627
C          0.09694        25.61332         0.86558
C          1.34306        27.69470         1.30015
C          0.20962        26.93739         1.44446
C          1.48402        29.09651         1.67148
C          3.70888         3.45083         0.81516
C          2.50210         4.10894         0.96931
C          3.64851         6.26012         0.17328
C          2.37175         5.51761         0.53986
C          3.62502         7.73206         0.25971
C          2.45763         8.42653         0.49537
C          3.71390        10.65278         0.19282
C          2.47202         9.91843         0.61075
C          3.68631        12.09760        -0.11179
C          2.49434        12.84169         0.35823
C          3.44963        14.89485        -0.88808
C          2.41565        14.31674         0.03108
C          3.48780        16.37368        -1.13310
C          2.25650        17.15030        -0.68902
C          3.58675        19.24292        -1.02221
C          2.39449        18.61050        -0.54357
C          3.61300        20.69520        -1.04851
C          2.26299        21.39913        -0.97818
C          3.67231        23.56234        -0.68979
C          2.34269        22.92626        -0.82214
C          3.71556        24.94952        -0.16441
C          2.46925        25.64037         0.29852
C          3.70619        27.88729         0.35414
C          2.45007        27.12364         0.49944
C          3.95174        29.14177         1.16735
C          2.63292        29.80225         1.51372
C          6.15639         3.45271         0.52243
C          4.93802         4.13927         0.51307
C          6.15447         6.27386         0.28153
C          4.94182         5.56343         0.31530
C          6.17816         7.69195        -0.00487
C          4.87745         8.39466        -0.17703
C          6.13369        10.62804        -0.46064
C          4.85452         9.86543        -0.36159
C          5.96095        11.98446        -1.05819
C          4.78226        12.72406        -0.66748
C          5.89933        14.86216        -1.62809
C          4.68372        14.13080        -1.15824
C          6.00266        16.31140        -1.55836
C          4.80139        17.05633        -1.29145
C          6.01424        19.17189        -1.65371
C          4.76031        18.47605        -1.31765
C          6.03730        20.70507        -1.55583
C          4.78264        21.41011        -1.20391
C          6.11890        23.52251        -1.06088
C          4.83052        22.85577        -0.98533
C          6.18608        24.99989        -0.86331
C          4.97533        25.75117        -0.38299
C          5.73058        28.14347        -0.83730
C          4.86892        27.23783        -0.30046
C          6.00869        29.45763        -0.26337
C          5.06837        30.00670         0.58933
C          8.61203         3.43335         0.50414
C          7.40558         4.14042         0.53890
C          8.60501         6.32356         0.56375
C          7.40313         5.59510         0.50427
C          8.64032         7.73068         0.21239
C          7.37462         8.37938        -0.10188
C          8.68056        10.43159        -0.82347
C          7.39517         9.85013        -0.37330
C          8.85798        11.41662        -1.75270
C          6.82211        12.58764        -1.95344
C          8.82428        15.05042        -2.26485
C          6.80534        13.99743        -2.22754
C          8.61713        16.33837        -1.72315
C          7.29275        17.02035        -1.66456
C          8.53762        19.20936        -1.63155
C          7.28436        18.41631        -1.59619
C          8.52731        20.66490        -1.31011
C          7.32396        21.38443        -1.31189
C          8.63027        23.51923        -1.40611
C          7.30798        22.81494        -1.16676
C          8.64917        24.97197        -1.01597
C          7.46670        25.68047        -1.21261
C          8.65338        27.82083        -0.83999
C          7.57685        27.08079        -1.32049
C          8.54841        29.26364        -0.62776
C          7.35343        29.98915        -0.43823
C         11.15948         3.46180         0.65090
C          9.85617         4.08123         0.87797
C         11.13827         6.36216         0.98956
C          9.82325         5.63927         0.99923
C         11.11575         7.85721         0.67326
C          9.82955         8.46263         0.24856
C         11.15752        10.61177        -0.33052
C          9.85690         9.89954        -0.11221
C         11.22434        11.84253        -1.17346
C         10.11883        12.11070        -1.92936
C         11.16330        14.88499        -1.47583
C         10.04255        14.36815        -2.16765
C         11.06946        16.28533        -1.18411
C          9.83113        16.98385        -1.34615
C         11.03636        19.17463        -0.92468
C          9.85353        18.45407        -1.41214
C         10.97812        20.56382        -0.82323
C          9.77451        21.32123        -1.01052
C         10.95356        23.46636        -0.50530
C          9.81915        22.75072        -0.90842
C         11.00496        24.89104        -0.39507
C          9.83907        25.66644        -0.67489
C         11.00574        27.79186        -0.07440
C          9.83562        27.09648        -0.49610
C         11.01685        29.25102        -0.21703
C          9.81026        29.92070        -0.47225
C         13.60524         3.49846         0.50878
C         12.36830         4.18023         0.66600
C         13.59533         6.33058         0.61214
C         12.38886         5.62324         0.77384
C         13.58653         7.75861         0.34624
C         12.38806         8.45397         0.24255
C         13.67806        10.55469        -0.53292
C         12.38949         9.79021        -0.35583
C         13.62147        12.03503        -0.66582
C         12.42832        12.68057        -1.08816
C         13.55493        14.85027        -0.83595
C         12.37981        14.11654        -1.18112
C         13.51380        16.30230        -0.73017
C         12.28278        17.00578        -0.84303
C         13.46858        19.11697        -0.43418
C         12.25625        18.43214        -0.69988
C         13.51636        20.59339        -0.39819
C         12.22828        21.31768        -0.59628
C         13.39907        23.40500         0.32072
C         12.13398        22.70295        -0.06609
C         13.41412        24.87327         0.28010
C         12.18885        25.56646         0.03748
C         13.33073        27.55484         0.76849
C         12.14462        26.98311         0.25357
C         13.40645        29.72629         0.37115
C         12.23111        30.05207        -0.28755
C         16.06511         3.49732         0.30619
C         14.83297         4.18774         0.47869
C         16.07017         6.33640         0.48501
C         14.83926         5.62339         0.53032
C         16.05023         7.76304         0.41232
C         14.84698         8.45927         0.16618
C         16.08390        10.60636         0.04296
C         14.88945         9.86866        -0.06301
C         16.00693        12.10302         0.22039
C         14.79112        12.77302        -0.39907
C         15.99923        14.91613        -0.07569
C         14.76043        14.16745        -0.51004
C         16.01754        16.35884        -0.50589
C         14.72805        17.02680        -0.51649
C         15.93230        19.22385        -0.25071
C         14.68528        18.42628        -0.37783
C         15.81295        20.43604         0.67034
C         14.67133        21.30039         0.20836
C         15.89842        23.39481         0.68398
C         14.68376        22.66136         0.36890
C         15.88291        24.82207         0.68913
C         14.63341        25.55050         0.47221
C         15.81152        27.79375         0.58143
C         14.58621        26.96825         0.63171
C         15.85461        29.30415         0.60534
C         14.75965        30.12222         0.20899
C         18.49988         3.49598        -0.10798
C         17.27628         4.18621         0.19778
C         18.53967         6.29849         0.18720
C         17.30717         5.61917         0.33985
C         18.63781         7.73591         0.44939
C         17.28893         8.52411         0.54839
C         18.56572        10.64973         0.14434
C         17.31256         9.95582         0.24889
C         18.56132        12.06219        -0.06957
C         17.31071        12.79580        -0.10642
C         18.52589        14.86423        -0.64828
C         17.27796        14.14789        -0.33038
C         18.49378        16.36185        -0.81915
C         17.19639        17.05515        -0.61623
C         18.47599        19.11965         0.07568
C         17.23124        18.52756        -0.47158
C         18.42162        20.49887         0.64684
C         17.12166        21.20118         0.87844
C         18.32594        23.39836         1.07029
C         17.12381        22.69864         0.88502
C         18.31401        24.83258         1.12505
C         17.07640        25.53056         0.94541
C         18.26489        27.76734         1.29243
C         17.09904        27.00704         0.77016
C         18.31954        29.22084         1.03792
C         17.12315        29.90423         0.69725
C         19.66107         4.18079        -0.34765
C         20.89123         6.34723        -0.50278
C         19.70926         5.60888        -0.22517
C         20.93102         7.73371        -0.42016
C         19.82395         8.48576         0.03750
C         21.01655        10.66362        -0.02014
C         19.80207         9.91726         0.08476
C         21.01965        12.03120        -0.10082
C         19.79859        12.77855        -0.18091
C         20.98850        14.98562        -0.34388
C         19.80126        14.18318        -0.38189
C         20.99418        16.34264        -0.46216
C         19.78969        17.18373        -0.80671
C         20.86574        19.13985         0.52827
C         19.67359        18.47470        -0.00266
C         20.88285        20.46409         0.78004
C         19.68148        21.32905         0.44908
C         20.82861        23.49771         0.90335
C         19.64228        22.64957         1.26678
C         20.77378        24.85452         0.94123
C         19.55340        25.55057         1.20515
C         20.80412        27.79656         1.45821
C         19.58089        26.99293         1.49564
C         20.74890        29.16671         1.39312
C         19.53874        29.88173         1.19312
O         13.16864        21.19624        -1.71735
O         11.17403         7.36558         2.05717
O         18.45987        15.50865        -2.01961
O          6.87901        10.62652         0.80291
O         16.63278        19.38956        -1.52272
O         18.07676         8.15807         1.72698
O          4.62965         9.02419        -1.52712
O          5.98765        25.28350         0.59607
O         10.47422        10.75921         0.94523
O          2.89674        13.87629         1.34359
O          6.52761        27.76508        -1.92133
O          9.70540         4.79952         2.16995
O         18.66380        27.35172         2.61117
O          2.66168        27.97791        -0.69103
O          2.75716         5.72311        -0.86360
O          9.42306        18.90821        -2.75659
O         13.04308         9.85428        -1.66823
O          5.95689        20.02939        -2.85529
O          7.83302        14.45185        -3.05791
O         16.65960        27.38039        -0.56963
O          3.34248        24.96797         1.27758
O          3.57156        14.17803        -2.16305
O         17.86698        20.59648         2.01127
O          2.46488        16.75172        -2.10002
O         12.45647        22.86298         1.35247
O          1.49751        23.64162        -1.80965
O         13.24802        28.78190         1.40926
O          7.83583        11.86939        -2.59543
O         10.12800        13.14929        -2.87091
O          3.46211        10.37070         1.61336
O         15.38838        19.90460         1.95436
H         16.19000        19.84642         2.52486
O          1.59169        21.09071        -2.21262
H          1.30743        21.94671        -2.61283
O          8.77397        23.55882        -2.87431
H          8.85914        22.63235        -3.18885
O         15.91604        15.02422         1.39129
H         15.77273        14.10572         1.74120
O         19.76513        21.71080        -0.94159
H         19.81052        20.89407        -1.48374
O         15.80268        12.27577         1.67859
H         16.52292        11.79219         2.13856
O          4.50148        28.67202         2.44143
H          4.63920        29.44974         3.02143
O          2.04983        21.19874         1.40955
H          1.52697        20.83853         2.15537
O         20.00312        17.64166        -2.17585
H         19.70486        16.90424        -2.75789
O         19.79409        22.32686         2.67192
H         19.05610        21.71364         2.90700
H          1.38495         2.41564         1.78848
H         -0.65007         3.73450         2.28323
H         -0.73743         6.17042         1.92031
H         -0.91825         8.01242         1.06701
H         -0.94609        10.42825         0.85215
H         -0.87167        12.39348         1.06225
H         -0.93730        14.78946         0.75522
H         -0.66737        16.75782         1.15198
H         -0.51221        19.18945         1.19276
H         -0.87689        20.86522         0.26094
H         -1.10520        23.24857        -0.18428
H         -0.88623        25.12288         0.91861
H         -0.66650        27.34701         1.96801
H          0.58560        29.61187         2.04709
H          3.77138         2.38243         1.07264
H          2.64930        30.86919         1.78747
H          6.15714         2.35658         0.61519
H          5.31731        30.92860         1.14148
H          8.61377         2.36052         0.26123
H          7.48588        31.04530        -0.14723
H         11.18708         2.38737         0.41530
H          9.82804        31.02146        -0.50008
H         13.60111         2.40187         0.42397
H         12.20807        30.93249        -0.94784
H         16.05376         2.40160         0.20765
H         14.99002        31.10587        -0.22932
H         18.47534         2.39991        -0.19523
H         17.18245        30.99781         0.58500
H         20.57751         3.64225        -0.62908
H         21.78549         5.80283        -0.83848
H         21.85246         8.25169        -0.72063
H         21.97641        10.12962        -0.00564
H         21.98205        12.55612        -0.15928
H         21.95211        14.48541        -0.16930
H         21.96559        16.85769        -0.45372
H         21.76738        18.53802         0.71118
H         21.79834        20.93899         1.16160
H         21.78718        22.99776         0.70470
H         21.69103        25.43542         0.76934
H         21.78144        27.29554         1.46287
H         21.68886        29.73668         1.41527
H         19.57813        30.97233         1.06381
