         273
 CSIRO Nanostructure Databank - Neutral Graphene Oxide Data Set
C        -10.98765         0.31467        -1.10124
C        -10.09514         1.16036        -0.22285
C         -8.80183         0.42689         0.18367
C         -7.57256         1.25308         0.37994
C         -6.24925         0.52129         0.42493
C         -5.01449         1.37123         0.33487
C         -3.67771         0.69301        -0.00848
C         -2.39350         1.50436         0.32177
C         -1.09640         0.77298         0.54965
C          0.08400         1.57679         1.01877
C          1.41499         0.85729         1.03424
C          2.61542         1.60819         0.51996
C          3.86993         0.87572         0.19071
C          5.15744         1.69047         0.36096
C          6.44164         0.90549         0.05323
C          7.58037         1.59749        -0.65520
C          8.86349         0.87140        -0.75992
C         10.09741         1.62859        -0.58517
C         11.26040         0.79796        -0.23510
C         -9.67617         2.52972        -0.83175
C         -8.89138         3.46525         0.09023
C         -7.65829         2.66173        -0.21908
C         -6.38589         3.46453        -0.44953
C         -5.10671         2.83584         0.05204
C         -3.80484         3.64441         0.17103
C         -2.50858         2.99958         0.59383
C         -1.23744         3.89420         0.78347
C          0.05524         3.07515         0.93363
C          1.37058         3.82442         0.76767
C          2.68029         3.10484         0.70951
C          3.91465         3.85437         0.22803
C          5.05442         3.03788        -0.39005
C          6.39689         3.83811        -0.31456
C          7.58049         3.06476        -0.86678
C          8.91108         3.85562        -1.03455
C         10.09150         3.00022        -0.56899
C         -8.91342         4.82021         0.07182
C         -7.73083         5.75049        -0.23890
C         -6.42855         4.97149        -0.58859
C         -5.06257         5.70047        -0.78226
C         -3.76126         4.98181        -0.48629
C         -2.45059         5.75102        -0.52323
C         -1.12030         5.04110        -0.23230
C          0.00297         6.00218         0.24356
C          1.31638         5.30218         0.43230
C          2.50116         5.97734        -0.20528
C          3.84226         5.30154        -0.15517
C          4.94878         5.90920        -1.00486
C          6.13465         5.00653        -1.28120
C          8.01224         6.24571        -0.65877
C          8.75874         5.20361        -0.26882
C         -7.46167         6.84612         0.79296
C         -6.68822         7.90221         0.42571
C         -4.97688         7.19184        -0.78526
C         -3.85233         7.91335        -0.48012
C         -2.53756         7.24778        -0.61463
C         -1.32282         8.10277        -0.55621
C         -0.03213         7.53259         0.00061
C          1.12860         8.20254        -0.80595
C          2.42528         7.38754        -0.72243
C          3.70145         8.16955        -0.86788
C          4.98180         7.40216        -1.15800
C          6.28910         8.21168        -1.23603
C          7.64090         7.46147        -1.04768
C         -6.18568         9.06408         1.15198
C         -5.02360         9.72296         0.85743
C         -3.87043         9.28775         0.05725
C         -2.72452        10.06540         0.08464
C         -1.39642         9.60186        -0.39918
C         -0.06297        10.26215        -0.08612
C          1.13722         9.63946        -0.27329
C          2.44690        10.14774         0.31481
C          3.71815         9.56661        -0.33127
C          5.07344        10.01312         0.10531
C          6.20733         9.38626        -0.26128
C        -10.90372        -1.02939        -1.19798
C         -9.78140        -1.80668        -0.66752
C         -8.53581        -0.97381        -0.43774
C         -7.46319        -1.76407         0.43135
C         -6.15733        -0.96393         0.49266
C         -4.83389        -1.61501         0.07232
C         -3.59823        -0.76399         0.56080
C         -2.26569        -1.47396         0.23229
C         -1.02584        -0.72531         0.62906
C          0.15089        -1.38657         0.83468
C          1.43365        -0.64170         1.06140
C          2.75490        -1.36373         0.85150
C          3.89409        -0.63569         0.19003
C          5.18048        -1.36606        -0.02869
C          6.45972        -0.59135         0.04947
C          7.73142        -1.28344        -0.32149
C          8.85673        -0.48909        -0.83289
C         10.08113        -1.36570        -0.76267
C         11.24847        -0.55569        -0.24065
C         -9.77010        -3.16282        -0.61397
C         -8.60800        -3.98867        -0.06746
C         -7.29063        -3.16161        -0.22863
C         -6.06686        -3.87042         0.37165
C         -4.75180        -3.07293         0.59328
C         -3.53067        -3.78321        -0.07704
C         -2.21151        -2.97748         0.10522
C         -0.98219        -3.70038         0.59299
C          0.18950        -2.87626         1.01725
C          1.52981        -3.59695         1.21220
C          2.84499        -2.85290         1.01207
C          4.04782        -3.60309         0.44889
C          5.27126        -2.87607        -0.01231
C          6.09736        -3.45606        -1.18775
C          7.56495        -2.88405        -1.41026
C          8.69618        -3.57346        -0.65350
C          9.50666        -2.55124         0.12441
C         -8.46326        -5.35719        -0.76517
C         -7.13384        -6.06881        -0.49135
C         -6.00767        -5.35647         0.18010
C         -4.66780        -6.04965         0.28523
C         -3.42336        -5.22450         0.37602
C         -2.09436        -5.86531         0.13109
C         -0.94047        -5.07249         0.63955
C          0.25253        -5.86791         1.01903
C          1.56239        -5.11246         1.17468
C          2.83000        -5.80288         0.72797
C          3.77796        -4.97472        -0.09589
C          4.80898        -5.67018        -0.92328
C          6.16104        -5.00838        -1.13782
C          7.47123        -5.73543        -0.81630
C          8.61822        -4.88778        -0.37582
C         -6.97933        -7.35171        -0.88729
C         -5.64085        -8.03883        -1.02424
C         -4.53161        -7.44593        -0.18472
C         -3.32726        -8.09577        -0.13505
C         -2.04755        -7.35264         0.02706
C         -0.79738        -8.07090         0.37744
C          0.29197        -7.34821         0.76600
C          1.60567        -7.97977         1.20695
C          2.85972        -7.29551         0.64539
C          3.82024        -7.93595        -0.31830
C          4.70781        -7.15219        -0.98538
C          6.65963        -8.11160        -0.74526
C          7.49711        -7.13701        -0.30359
C         -5.65050        -9.54231        -0.93398
C         -4.49716       -10.21298        -0.74687
C         -3.24469        -9.52024        -0.43820
C         -2.05929       -10.18186        -0.31549
C         -0.83573        -9.59511         0.34268
C          0.45264       -10.26363        -0.07808
C          1.49593        -9.68171        -0.73988
C          2.85038       -10.21448        -0.59065
C          3.94795        -9.41759        -0.40846
C          5.24881       -10.04746        -0.16857
C          6.47420        -9.45682        -0.21712
O         -0.06144         2.37106         2.22133
O          2.24432         6.24188        -1.62815
O          3.19779        -1.98148         2.10777
O         -4.83013        -1.67275        -1.35489
H         -4.69521        -0.76303        -1.72459
O         -7.93943        -0.70321        -1.65727
O         -3.57311        -0.57949         1.97773
H         -3.94228        -1.38397         2.41741
O         -8.40585         0.82445         1.51958
O          1.67699        -8.85634         2.03746
O         -2.04736        -2.09790        -1.06780
O          5.27473        -3.54220         1.26329
O          6.35119         8.76483        -2.56186
H          5.92035         8.12823        -3.17294
O          0.88536        -5.64603         2.33103
O          2.94757         1.29730        -0.86527
O          4.69589         2.87534        -1.75669
H          5.48074         2.54834        -2.26401
O         -1.86335        -6.46525        -1.17916
O         -4.03249        -5.71219         1.59118
O          6.77154         0.15949         1.27139
O          2.20134         3.61449         1.96406
O          3.62974        -5.01829        -1.54024
O          6.56361         4.94211        -2.42941
O         -6.38394        -4.73713         1.47440
O          7.79728        -2.52092        -2.62169
O          4.64851         6.54614        -2.28628
O          0.01240         8.14331         1.34030
H          0.19393         7.44313         2.01214
O         -6.09802        -0.21463         1.71970
O        -10.86200         1.43434         0.96461
H        -10.22037         1.56423         1.70076
O          6.99460        -5.55100        -2.18273
O         -1.45616         1.27988        -0.79108
O         -2.38295         6.40702        -1.82458
O         -4.51320        -3.03886         2.00653
H         -4.85327        -3.89798         2.36938
O         -7.00063        -3.04375        -1.61071
H         -7.42235        -2.21489        -1.98973
O         -1.35193         8.97280        -1.71508
O         -8.38296         2.34486        -1.52986
O          0.85710         8.27543        -2.20445
H          1.21610         7.47671        -2.64690
O         -1.40918         4.56546         2.03781
H         -1.27216         3.90704         2.75514
O         -6.52577         4.08775        -1.75005
O          1.54708         0.14798         2.29473
O         -5.26704         2.29997         1.41712
O         -4.32884         4.98415        -1.82047
O          3.58104         9.32409        -1.75866
O          6.76231         4.18684         1.01787
H          5.95861         4.47316         1.51769
O         -0.66581         4.46711        -1.46687
H         -1.00189         5.03342        -2.20218
O          0.60758         5.85031         1.57271
O          7.21293         2.18499        -1.96719
O         -8.16877         6.37643        -1.45977
H         -8.01828         5.73645        -2.18896
O         -6.18825         7.87022        -0.90064
O          3.53299        -6.57738         1.74771
O          1.37967        -8.54435        -1.48727
H          0.43674        -8.30203        -1.59535
O          0.75049        -3.15484         2.34425
O          5.71091        -7.77359        -1.74589
O         10.44886        -1.87553        -2.05070
H          9.61570        -2.12736        -2.53045
O         -8.91433        -4.31195         1.29604
H         -8.81181        -3.50353         1.84815
O         -3.75502         0.66349        -1.45177
H         -2.83073         0.60627        -1.80174
O         -7.95332        -1.89504         1.74585
H         -7.59121        -1.12648         2.26316
O          4.29853         4.91203         1.16998
O          2.45515         9.73619         1.69843
H          1.55875         9.39453         1.92289
O         -0.96016       -10.03219         1.78186
O         -3.42192         3.54567         1.57026
O          4.30201        -1.03016        -1.15590
O         -8.60720        -5.17076        -2.17210
H         -8.33745        -5.99108        -2.63268
O          5.20436         2.06467         1.75064
H          5.66644         1.35149         2.25006
O          8.33194        -1.94736         0.78233
O         -5.25389        -7.74254        -2.41845
H         -5.00204        -6.79552        -2.47346
O          9.14209         4.10143        -2.41987
H          8.29517         4.42817        -2.81087
O          5.37481        -3.09912        -2.35539
H          6.05138        -2.91030        -3.05551
O         -2.05784        -9.26285         2.34920
H         -1.65113        -8.90344         3.17522
O         -3.75981        -3.97559        -1.47921
H         -3.81140        -3.08619        -1.90807
H         12.16590        -1.10135         0.02912
H         12.17618         1.32551         0.07361
H         11.03656         3.52741        -0.36169
H          9.14661         5.21435         0.76753
H          8.46167         8.08241        -1.46255
H          7.16675         9.78479         0.10340
H          5.12818        10.87396         0.78927
H          2.49236        11.27179         0.26508
H         -0.08598        11.27782         0.34265
H         -2.76722        11.03444         0.60803
H         -4.84250        10.65343         1.42211
H         -6.82493         9.48566         1.94384
H         -7.89082         6.77011         1.80116
H         -9.89108         5.31403        -0.05806
H        -10.45787         2.99019        -1.47898
H        -11.84910         0.83156        -1.55195
H        -11.68528        -1.57840        -1.74689
H        -10.68769        -3.71286        -0.87968
H         -9.29764        -6.02123        -0.39158
H         -7.82996        -7.86161        -1.37087
H         -6.58900       -10.07996        -1.13485
H         -4.48145       -11.31324        -0.76010
H         -2.03143       -11.26699        -0.49742
H          0.68647       -11.17322         0.49449
H          2.96158       -11.30637        -0.50918
H          5.20248       -11.10249         0.14743
H          7.35651       -10.01757         0.12725
H          8.22352        -7.36494         0.48913
H          9.38178        -5.36596         0.25874
H         10.18676        -2.98135         0.88951
