         271
 CSIRO Nanostructure Databank - Neutral Graphene Oxide Data Set
C        -10.93103         0.75835        -1.04424
C         -9.79925         1.57635        -0.59876
C         -8.53343         0.85198        -0.45409
C         -7.28447         1.63102        -0.25767
C         -6.07259         0.94095         0.29925
C         -5.17471         1.63950         1.30426
C         -3.83093         0.93000         1.44497
C         -2.54443         1.66257         1.30199
C         -1.33660         0.83864         0.93637
C         -0.01267         1.56124         1.05055
C          1.18572         0.81242         0.53632
C          2.45488         1.56787         0.24684
C          3.68208         0.78929        -0.13912
C          4.99876         1.49908        -0.03817
C          6.24487         0.73715        -0.31356
C          7.42830         1.51644        -0.81191
C          8.65740         0.78108        -1.18617
C          9.93574         1.47384        -0.69075
C         11.17127         0.69074        -1.06109
C         -9.90305         2.91992        -0.37797
C         -8.75853         3.74485         0.19387
C         -7.41993         3.14455        -0.25562
C         -6.28590         3.85316         0.46639
C         -5.09004         3.17206         1.07085
C         -3.78590         3.90697         0.99253
C         -2.53351         3.10483         0.87542
C         -1.20749         3.80957         0.78278
C          0.04754         3.05923         1.15250
C          1.41198         3.80153         1.22118
C          2.61684         2.99365         0.70796
C          3.83108         3.71784         0.23653
C          4.96238         2.96047        -0.39898
C          6.24274         3.70698        -0.61298
C          7.52914         2.94584        -0.24281
C          8.77422         3.70352        -0.82875
C          9.86755         2.91614        -1.14987
C         -8.80126         5.24234        -0.27008
C         -7.46678         6.00687        -0.23824
C         -6.18577         5.26659        -0.00495
C         -4.96285         6.02042         0.37466
C         -3.76828         5.27139         0.86290
C         -2.50887         6.05570         0.70797
C         -1.20400         5.31926         0.71894
C          0.08661         6.07140         0.82981
C          1.35402         5.29187         0.69179
C          2.40467         5.86076        -0.24062
C          3.72012         5.13730        -0.24782
C          5.00845         5.93686        -0.20533
C          6.25491         5.17220        -0.56205
C          7.48699         5.86285        -0.66922
C          8.71036         5.10997        -0.84163
C         -7.38396         7.33094        -0.50792
C         -6.05703         8.09391        -0.52214
C         -5.15701         7.51668         0.60904
C         -3.84747         8.27964         0.83956
C         -2.54292         7.54888         0.95959
C         -1.24483         8.29698         0.71157
C          0.02495         7.53867         0.49231
C          1.05899         8.17222        -0.42452
C          2.27263         7.30220        -0.87727
C          3.62185         8.08762        -0.81648
C          4.92781         7.30327        -0.86343
C          6.24927         8.04989        -0.78991
C          7.48361         7.27750        -0.56744
C         -6.19929         9.58383        -0.32614
C         -5.15850        10.34289         0.03221
C         -3.81794         9.85000         0.54113
C         -2.65870        10.02004        -0.41438
C         -1.29414         9.75792         0.14645
C         -0.07340         9.91736        -0.80102
C          1.25912         9.63521        -0.12687
C          2.43735        10.29154        -0.14784
C          3.69789         9.55064        -0.44503
C          5.02928        10.12323        -0.13704
C          6.18492         9.47506        -0.40126
C        -10.89278        -0.59049        -1.05486
C         -9.72849        -1.36073        -0.49266
C         -8.49058        -0.50835        -0.44756
C         -7.16796        -1.17465        -0.44483
C         -6.05489        -0.54807         0.31799
C         -4.99200        -1.26463         0.77696
C         -3.85097        -0.60012         1.46492
C         -2.56332        -1.37450         1.63626
C         -1.32220        -0.64794         1.16944
C          0.01738        -1.35371         1.31356
C          1.18764        -0.69397         0.61059
C          2.46662        -1.46429         0.33165
C          3.70368        -0.72105        -0.10796
C          5.02631        -1.41708        -0.14964
C          6.17338        -0.74085        -0.43716
C          7.38284        -1.46976        -0.90855
C          8.60664        -0.71914        -1.35690
C          9.92390        -1.46239        -1.58872
C         11.15383        -0.62753        -1.29994
C         -9.53082        -2.75292        -1.05670
C         -8.32260        -3.38047        -1.08250
C         -7.08896        -2.60648        -0.80489
C         -5.81293        -3.33431        -0.49745
C         -4.93234        -2.75103         0.57612
C         -3.76750        -3.57032         1.04928
C         -2.52092        -2.89562         1.57031
C         -1.20638        -3.63525         1.64437
C          0.08707        -2.82429         1.63870
C          1.42900        -3.54769         1.48388
C          2.62847        -2.84703         0.88917
C          3.84192        -3.61389         0.46194
C          4.99148        -2.93242        -0.30082
C          6.36945        -3.54093        -0.05282
C          7.48656        -2.89568        -0.50820
C          8.80863        -3.52196        -0.57118
C          9.91994        -2.83693        -0.94817
C         -8.13085        -4.78840        -1.41508
C         -6.93528        -5.44640        -1.37710
C         -5.67303        -4.75712        -0.93668
C         -4.43240        -5.56917        -0.51039
C         -3.67639        -5.04986         0.72332
C         -2.43777        -5.82875         1.06546
C         -1.10808        -5.05128         1.04655
C          0.14314        -5.82411         1.52068
C          1.43754        -5.05812         1.61263
C          2.75227        -5.74530         1.28149
C          3.88910        -4.94341         0.72273
C          5.18314        -5.69073         0.65626
C          6.44945        -4.97030         0.33054
C          7.63137        -5.74282        -0.15690
C          8.94684        -4.99178        -0.20351
C         -6.92049        -6.93477        -1.71268
C         -5.50518        -7.52778        -1.72951
C         -4.75258        -7.07502        -0.45964
C         -3.46522        -7.87901        -0.21180
C         -2.36306        -7.26558         0.58521
C         -1.06618        -8.00580         0.74416
C          0.16245        -7.32661         1.27259
C          1.50271        -8.10283         1.28015
C          2.72390        -7.22517         0.94431
C          3.78098        -7.75528         0.00037
C          5.10453        -7.08316         0.11005
C          6.38857        -7.88967         0.14610
C          7.57442        -7.08065        -0.33814
C         -5.48631        -9.04398        -1.81677
C         -4.35907        -9.73070        -1.57439
C         -3.09118        -8.99552        -1.19302
C         -1.97992        -9.85806        -0.63928
C         -1.00985        -9.37588         0.16330
C          0.15975       -10.21716         0.64294
C          1.44142        -9.40536         0.48550
C          2.51654        -9.95531        -0.10456
C          3.69978        -9.16721        -0.59622
C          5.03805        -9.87824        -0.58840
C          6.22438        -9.27511        -0.42819
O          5.40770         3.21957        -1.74694
O         -5.65741        -7.29386         0.62956
H         -5.09727        -7.46193         1.42958
O         -6.09480         1.34568        -1.10412
O         -3.28315         7.96126         2.14485
O         -3.53729        -5.72862         2.00828
O          0.16357         8.66145        -1.55942
O          2.80951         5.02290        -1.37031
O          4.27065        -6.88910        -1.09432
O        -10.13780        -1.60700         0.95348
O          5.64204         7.55252        -2.07553
O         -0.74898        -8.00414         2.19225
O          2.80942        -1.37299        -1.08183
O          1.04386         6.03875         1.92210
O         -0.01796         2.20943         2.34941
O          0.71396        -5.48399         2.80437
O          7.68756         2.91867         1.11385
O          6.64320        -8.10899         1.56704
H          6.63772        -7.22567         2.00918
O          1.71067        -8.55131         2.63567
O         -6.81002        -1.57400        -1.82537
O         -1.84608         3.25049        -0.40762
O          7.61717        -1.15887        -2.33555
O         -4.97495        -3.41502         1.87881
O          2.84958         1.39983        -1.15559
O          3.27883        -6.72711         2.20381
O          7.84495         1.45814        -2.20062
O         -2.53748        -8.36496        -2.37868
H         -3.27561        -7.91455        -2.85890
O         -0.84681        -4.86053        -0.37854
H         -1.68943        -4.93742        -0.90078
O          9.89804         1.42733         0.75722
H          9.12809         1.97905         1.09447
O         10.02368        -1.74332        -3.01511
H          9.09895        -1.84020        -3.34521
O          2.43851        -2.92125         2.33514
O         -9.76139         5.89218         0.56937
H         -9.62697         6.86076         0.52064
O         -5.18326        -3.65971        -1.77888
O         -3.63031        10.51533         1.77954
H         -2.66085        10.63868         1.93140
O         -3.10711         1.45130         2.61769
O         -6.11972         3.80526         1.90429
O          3.62675         9.09822        -1.86146
O         -0.24077         8.25232         1.75872
O         -5.17034         5.53951        -1.02278
O          3.74688         3.28772         1.61228
O         -3.36837        -1.01073         2.78499
O          0.19687        -1.80617         2.67570
O         -1.57005        -0.07424        -0.16180
O         -3.39727        -5.36462        -1.51611
H         -3.79078        -5.56720        -2.40131
O         -3.36508        -8.17455         1.19816
O         -7.31301         3.54293        -1.64530
H         -6.60709         2.99607        -2.06037
O         -1.81639         5.76827        -0.54548
O         -2.01928        -3.48621         2.81736
O         -4.86020        -7.00076        -2.92154
H         -5.55775        -7.01567        -3.62033
O          5.85822         1.13752         1.06072
O          0.22412       -11.45168        -0.05278
H          0.34702       -11.26744        -1.00657
O          9.54406        -5.10037         1.10284
H          8.88017        -4.82442         1.76868
O         -7.45833        -7.15192        -3.02622
H         -8.29160        -6.64569        -3.11888
O          0.78442        -0.00244        -0.59505
O         -8.97677        -2.22819         1.59121
H         -9.06888        -1.91076         2.52260
O          6.10237        -5.35049         1.73823
O          3.38476        -9.03346        -2.01838
H          3.87400        -8.23832        -2.33772
O          4.72358        -3.20813        -1.70558
H          3.95182        -2.65200        -1.96970
O          5.12998         6.26932         1.22658
H          5.27091         5.43845         1.73384
H          0.83860        -8.56171         3.09072
O         -5.41970         7.97219        -1.80691
H         -5.34890         7.01086        -2.02521
O         -1.03940        10.64552         1.25928
H         -0.40719        10.17721         1.85529
O         -8.84268         3.69557         1.62045
H         -9.42525         4.43966         1.89509
O          2.04579         7.05366        -2.26463
H          2.19567         7.89878        -2.74321
O          1.69935         3.88045         2.62268
H          1.01273         4.41659         3.07211
O         -5.92485         7.65231         1.82214
H         -5.29582         7.70547         2.57572
O         -5.85264         1.41058         2.55383
H         -5.24662         1.67320         3.28031
H         12.10991        -1.14843        -1.46687
H         12.13905         1.20399        -0.94825
H         10.64219         3.30633        -1.83212
H          9.65609         5.67592        -0.82910
H          8.43835         7.82056        -0.49267
H          7.14092         9.96812        -0.16616
H          5.05975        11.14994         0.25725
H          2.46472        11.39139        -0.19906
H         -0.13313        10.81199        -1.46071
H         -2.83047         9.68080        -1.45045
H         -5.28750        11.43421         0.09861
H         -7.14897        10.05842        -0.61872
H         -8.29865         7.90150        -0.74365
H         -9.17053         5.26537        -1.33691
H        -10.88266         3.40885        -0.50001
H        -11.83334         1.28337        -1.39314
H        -11.76733        -1.16331        -1.39894
H        -10.44342        -3.32546        -1.28849
H         -9.03536        -5.35766        -1.69009
H         -7.54962        -7.48497        -0.95766
H         -6.40964        -9.56370        -2.11470
H         -4.34117       -10.82792        -1.66358
H         -1.90739       -10.89699        -0.99844
H          0.00698       -10.45015         1.72954
H          2.42590       -10.97492        -0.51435
H          5.01498       -10.92496        -0.93106
H          7.14889        -9.86111        -0.55096
H          8.48421        -7.62614        -0.63601
H          9.64943        -5.48892        -0.91841
H         10.87467        -3.38515        -0.99462
