         470
 CSIRO Nanostructure Databank - Neutral Graphene Oxide Data Set
C         37.88263        50.14478        -2.30256
C         36.69175        50.83169        -2.08929
C         37.90671        52.91512        -2.01017
C         36.70164        52.22110        -1.93214
C         40.37375        48.70512        -2.76698
C         40.38054        50.08436        -2.48107
C         39.11535        50.82674        -2.38445
C         40.39339        52.97068        -2.40350
C         39.11264        52.23583        -2.25111
C         40.43863        54.42426        -2.09244
C         42.75976        48.60392        -2.37519
C         41.56423        47.99406        -2.77999
C         42.82551        49.97838        -2.02992
C         41.62196        50.71908        -2.21611
C         42.98816        52.92843        -2.02391
C         41.68111        52.19256        -2.33112
C         42.71371        54.17737        -1.17160
C         41.50997        54.97879        -1.50941
C         44.99498        45.73596         0.38212
C         44.30534        46.14379        -0.70671
C         45.13657        48.46949        -0.55170
C         44.46637        47.49566        -1.21583
C         45.24126        49.86230        -1.11255
C         44.03778        50.65777        -1.53662
C         45.25536        52.75838        -0.95640
C         44.07731        52.04126        -1.42498
C         45.22237        54.20200        -0.75456
C         43.90851        54.85689        -0.57259
C         45.04397        57.02644        -0.31499
C         43.92365        56.29535        -0.23665
C         47.43730        44.34549         1.13531
C         47.39083        45.81473         1.30159
C         46.05840        46.58343         0.96382
C         47.05920        48.94744         0.95669
C         45.81327        48.12244         0.76775
C         47.45572        50.02229         0.22059
C         46.47832        50.61865        -0.73463
C         47.65974        52.78838        -0.37459
C         46.44946        52.09156        -0.69904
C         47.66947        54.24572        -0.60447
C         46.37340        54.93903        -0.65258
C         47.54635        57.14055        -0.08481
C         46.36550        56.45432        -0.77362
C         47.55653        58.58457        -0.03805
C         49.86220        44.32185         0.69123
C         48.58421        43.66756         0.87015
C         49.86951        45.74789         0.75156
C         48.71060        46.47807         1.15632
C         49.98885        48.59481         0.91567
C         48.87169        47.84544         1.35606
C         49.90352        50.02644         0.77340
C         48.74043        50.70509         0.41411
C         50.00237        52.88330         0.42651
C         48.80517        52.12788         0.08718
C         50.00831        54.28826         0.45103
C         48.87621        55.03295        -0.12363
C         49.82374        57.12389         0.89786
C         48.69234        56.45163         0.24235
C         49.80875        58.65131         0.96554
C         48.64508        59.30190         0.35430
C         52.39308        41.55031         0.43422
C         51.17439        42.17353         0.58552
C         52.32346        44.31703         0.40127
C         51.09094        43.59604         0.58125
C         52.18848        45.67885         0.09015
C         51.08196        46.46858         0.47034
C         52.44592        48.61137         0.81838
C         51.18572        47.89561         0.58432
C         52.37023        49.95781         1.14255
C         51.22903        50.72345         0.54408
C         52.30878        52.88471         1.27530
C         51.18284        52.19452         0.84464
C         52.33581        54.31238         1.31645
C         51.15570        55.00736         0.90638
C         52.32912        57.13972         1.08638
C         51.12832        56.43033         0.96498
C         52.33692        58.60655         1.04232
C         51.12361        59.34346         1.02936
C         52.37599        61.43215         1.06356
C         51.16777        60.74680         1.06034
C         54.99461        40.29409        -0.22837
C         54.87290        41.52541         0.38216
C         53.62603        42.26805         0.44442
C         54.85291        44.40792         0.85656
C         53.62639        43.68437         0.51256
C         54.98326        45.79717         0.98102
C         53.98534        46.70731         0.48096
C         54.64637        48.35726         2.13752
C         53.69975        47.91289         1.05426
C         54.62390        49.85438         2.37362
C         53.39444        50.63790         1.95819
C         54.69642        52.85145         2.21625
C         53.42985        52.14661         1.89858
C         54.74586        54.38903         2.29693
C         53.53496        55.03767         1.60297
C         54.81582        57.08997         0.98496
C         53.54439        56.40571         1.29624
C         54.82714        58.58128         0.81629
C         53.56187        59.31964         1.00638
C         54.87830        61.43252         0.87074
C         53.59560        60.73007         0.99053
C         54.92616        62.78386         0.58407
C         57.39425        40.15253         0.28794
C         56.24403        39.61787        -0.26337
C         57.36210        41.45538         0.89289
C         56.05355        42.11817         1.02202
C         57.32840        44.29129         1.52420
C         56.02434        43.62130         1.32992
C         57.35128        45.69589         1.72757
C         56.12512        46.45352         1.60105
C         57.24384        48.58943         2.22476
C         56.05221        47.80541         1.94460
C         57.24235        49.97181         2.35842
C         55.89582        50.61031         2.57911
C         57.68390        53.07310         2.57568
C         55.71260        52.07834         2.67761
C         57.47794        54.48167         2.18550
C         56.09756        54.96801         1.74755
C         57.35946        57.13473         0.97607
C         56.10378        56.34519         1.13755
C         57.33990        58.55085         0.84773
C         56.11268        59.30758         0.92817
C         57.42243        61.43276         1.15445
C         56.11781        60.68941         0.95689
C         57.36828        62.86588         0.65797
C         56.16823        63.47249         0.42441
C         59.74288        37.21275         0.38717
C         58.61332        37.93087         0.32935
C         59.85760        39.99024         0.89874
C         58.70533        39.42618         0.08222
C         59.74898        41.32173         1.53191
C         58.51161        42.11135         1.33597
C         59.75895        44.21741         1.83806
C         58.51886        43.52396         1.63594
C         59.74078        45.62475         2.00430
C         58.54437        46.36875         2.04547
C         59.76615        48.59416         2.10116
C         58.52847        47.82323         2.50693
C         59.80251        49.96618         2.04730
C         58.59965        50.73793         2.58857
C         59.82859        52.83996         1.51396
C         58.65516        52.21982         2.15199
C         59.85167        54.24431         1.29372
C         58.67931        55.10254         1.57250
C         59.78809        57.04922         0.54309
C         58.58121        56.43099         0.94015
C         59.73341        58.47467         0.16981
C         58.55428        59.26304         0.56283
C         59.86725        61.34996         0.41770
C         58.62625        60.66426         0.61729
C         59.94150        62.82750         0.55508
C         58.64538        63.62025         0.63664
C         59.88637        65.62040        -0.09538
C         58.70380        65.01197         0.17644
C         62.36252        35.79495        -0.27846
C         62.34318        37.23352         0.05072
C         61.04461        37.93573         0.30168
C         62.27599        39.86386         1.47097
C         61.01873        39.28493         0.94421
C         62.31917        41.32240         1.71660
C         61.03036        42.02600         1.92888
C         62.24357        44.15791         1.99340
C         61.03067        43.50856         1.91506
C         62.30781        45.61484         1.82669
C         61.00578        46.36244         1.87584
C         62.31562        48.53425         1.84672
C         61.01930        47.82673         2.14315
C         62.18715        49.91147         1.36072
C         61.01311        50.63998         1.55869
C         62.14495        52.72551         0.71021
C         60.98943        52.06613         1.22738
C         62.15506        54.11857         0.50581
C         60.99991        54.89170         0.76659
C         62.25805        57.01269         0.30771
C         60.99341        56.32555         0.49600
C         62.30259        58.46209         0.23211
C         61.05686        59.20902         0.00821
C         62.33097        61.34717         0.07517
C         61.06869        60.66802         0.18115
C         62.36720        62.77695        -0.05003
C         61.16188        63.52633         0.09741
C         62.37781        65.59700        -0.43726
C         61.14800        64.91479        -0.10598
C         62.42012        66.99411        -0.67308
C         64.82562        35.78228        -0.17425
C         63.52160        35.13072        -0.41329
C         64.83724        37.21497         0.20798
C         63.61636        37.85920         0.45709
C         64.81600        39.98007         1.13642
C         63.59073        39.16245         1.15871
C         64.76585        41.31447         1.46613
C         63.52009        41.98683         1.80334
C         64.80380        44.19187         2.41799
C         63.51554        43.42527         2.22365
C         64.80111        45.69301         2.19486
C         63.58772        46.35022         1.97076
C         64.72182        48.38739         1.23756
C         63.55572        47.73931         1.63340
C         64.62813        49.69275         0.55426
C         63.31648        50.43927         0.57136
C         64.64456        52.57991         0.11016
C         63.32111        51.92527         0.27339
C         64.65090        54.06861         0.18722
C         63.35695        54.79921        -0.11766
C         64.73051        56.94085         0.37851
C         63.43347        56.26891         0.23431
C         64.76351        58.47265         0.39688
C         63.49450        59.17813         0.22160
C         64.80160        61.28023        -0.10195
C         63.53715        60.60573         0.03389
C         64.81739        62.69019        -0.32849
C         63.59536        63.43633        -0.32367
C         64.80081        65.53552        -0.87406
C         63.59457        64.86224        -0.53383
C         64.83275        66.93600        -1.04603
C         63.60537        67.64152        -0.95787
C         67.05112        33.75895        -2.52174
C         66.04489        34.02899        -1.65606
C         67.28110        36.08568        -0.88789
C         66.11117        35.19594        -0.76463
C         67.28620        37.35102        -0.23198
C         66.08208        37.89489         0.32209
C         67.32760        40.04596         0.75868
C         66.12450        39.20796         1.07034
C         67.31217        41.47019         1.09610
C         65.99863        42.14556         1.37061
C         67.28329        43.87176         2.50462
C         66.05730        43.41620         2.12521
C         67.27156        46.02577         2.49905
C         65.99762        46.48375         2.06243
C         67.22758        48.44525         1.15231
C         65.98450        47.76044         1.42767
C         67.22264        49.80627         0.68311
C         65.91981        50.42910         0.29333
C         67.12058        52.58774        -0.14695
C         65.83091        51.90145         0.14791
C         67.16492        54.05968        -0.34835
C         65.93480        54.81066         0.00504
C         67.14543        56.96530        -0.26396
C         65.95974        56.27988        -0.07777
C         67.18986        58.39172        -0.11406
C         66.02539        59.14334         0.05315
C         67.30683        61.25796        -0.18877
C         66.03619        60.56398        -0.09197
C         67.29621        62.68733        -0.45984
C         66.06246        63.34595        -0.58604
C         67.35106        65.47528        -1.22367
C         66.02103        64.73442        -1.06098
C         67.30307        66.95082        -1.23893
C         66.10481        67.64318        -1.22984
C         67.28251        69.81917        -1.27276
C         66.13759        69.09554        -1.19424
C         69.06900        33.49440        -4.65531
C         69.31288        34.20499        -3.43799
C         68.29071        34.50269        -2.51327
C         69.60511        36.41583        -1.60541
C         68.41233        35.63300        -1.61715
C         69.60608        37.70225        -1.01346
C         68.48492        38.14808        -0.29939
C         69.74280        40.20100         0.42464
C         68.50611        39.48065         0.30073
C         69.78142        41.44515         1.08312
C         68.59099        42.10791         1.44784
C         69.73758        44.21859         2.11905
C         68.58246        43.41009         2.03976
C         69.72924        45.71692         2.28229
C         68.48003        46.51761         2.04697
C         69.70988        48.51560         1.23150
C         68.47226        47.81112         1.42710
C         69.68561        49.87148         0.79087
C         68.42099        50.50351         0.53776
C         69.62015        52.61478        -0.29444
C         68.40884        52.00889         0.39490
C         69.62124        54.09424        -0.53367
C         68.46364        54.79794        -0.43994
C         69.60602        57.00676        -1.01634
C         68.29546        56.22264        -0.94356
C         69.67553        58.41429        -0.60947
C         68.51498        59.05729         0.12326
C         69.83420        61.23847         0.23569
C         68.49735        60.56108        -0.01320
C         69.78423        62.82648         0.16958
C         68.54032        63.42735        -0.49631
C         69.78297        65.62200        -0.41037
C         68.56615        64.78143        -0.77797
C         69.83404        66.99197        -1.06048
C         68.58404        67.64736        -1.43737
C         69.86431        69.89447        -1.33418
C         68.57952        69.18774        -1.54319
C         69.90909        71.29818        -1.27473
C         71.37005        33.84934        -5.38950
C         70.04906        33.34273        -5.60505
C         71.69587        34.46681        -4.21880
C         70.68310        34.66933        -3.18457
C         72.03163        36.72653        -2.20569
C         70.84143        35.85926        -2.15190
C         72.00893        37.99001        -1.75805
C         70.76960        38.66325        -1.22658
C         72.21025        40.38649         0.02455
C         71.01621        39.46495         0.07097
C         72.25408        41.55158         0.68729
C         71.07200        42.08768         1.40608
C         72.25252        44.36224         1.70115
C         71.04368        43.54796         1.93226
C         72.23112        45.70316         1.67045
C         71.01393        46.47288         2.01192
C         72.12458        48.63915         1.45441
C         70.95196        47.89646         1.55884
C         72.10788        49.95976         0.97878
C         70.91619        50.58479         0.62689
C         72.12451        52.79280         0.02694
C         70.92910        51.92085        -0.03852
C         72.11591        54.06395        -0.40238
C         70.92204        54.67986        -1.09868
C         72.15024        56.99332        -0.81867
C         70.93599        56.22393        -1.11309
C         72.11890        58.35247        -0.80825
C         70.88218        59.09892        -0.70933
C         72.03077        61.25389        -1.00054
C         70.93212        60.54530        -0.55143
C         72.08918        62.65996        -0.94016
C         71.03172        63.43996        -0.47307
C         72.26174        65.57115        -0.82782
C         71.06308        64.84594        -0.61944
C         72.25917        66.94055        -0.98586
C         71.03769        67.68452        -1.14376
C         72.29189        69.85526        -1.25523
C         71.07138        69.14577        -1.30037
C         72.32007        71.24497        -1.22104
C         71.12522        71.97245        -1.21485
O         41.12155        52.61881        -3.63827
O         52.86558        51.42103         3.07787
O         64.86218        57.69439         1.63064
O         62.95038        39.05765         2.49798
O         67.31004        44.95470         3.39099
O         62.95406        50.94436        -0.75026
O         54.75820        57.69564        -0.36321
O         56.71130        52.64950         3.48402
O         71.12348        34.48095        -1.80574
O         61.62636        38.01628        -1.05651
O         55.10137        50.08286         3.73759
O         70.27154        56.76123        -2.29513
O         66.66241        64.88909        -2.37707
O         61.62989        46.05289         0.57377
O         65.39441        54.47956         1.37109
O         59.45821        63.35096         1.84996
O         65.24590        49.66835        -0.76904
O         66.54092        42.24780         0.00684
O         68.62455        68.34814        -2.73329
O         65.71986        34.95177         0.63485
O         69.73001        63.29526         1.50741
O         49.49078        57.83385         2.13921
O         48.66765        54.75384        -1.56576
O         70.55250        46.23459         3.38649
O         43.87265        47.76013        -2.45233
O         58.31317        55.32512         3.03993
O         60.27757        58.76121        -1.16176
O         70.24170        51.84914        -1.34607
O         67.08081        53.13715        -1.50768
O         46.38189        49.99234        -2.05961
O         56.09420        55.11221         0.30214
O         53.23089        46.28612        -0.62089
O         55.74903        42.62875         2.36558
O         61.86999        48.29282         3.23867
O         42.98255        54.04196         0.25138
O         64.06164        43.69591         3.57856
O         60.19297        41.37578         2.93740
O         47.85777        48.54670         2.03969
O         71.27259        42.38877         2.81332
O         46.44541        46.26158         2.32694
O         58.77595        50.70306         4.03549
H         58.06237        51.25582         4.42796
O         70.35414        39.64578        -2.21517
H         70.15408        39.17676        -3.05151
O         58.58751        47.75385         3.96632
H         58.69892        48.68031         4.29346
O         54.14517        47.73189         3.35516
H         54.53078        48.23632         4.10843
O         70.98206        54.26257        -2.47983
H         70.41633        54.88818        -2.98877
O         67.84829        56.07810        -2.32641
H         67.41167        55.20567        -2.43477
O         71.27772        38.48429         1.10863
H         71.36141        38.95614         1.96376
O         46.51084        56.73864        -2.19760
H         47.29563        56.22968        -2.50476
O         69.69916        65.87217         1.02641
H         69.71383        64.94995         1.45079
O         68.79333        58.72208         1.53095
H         69.38836        59.44435         1.87869
O         59.04847        39.61644        -1.32169
H         59.87346        39.11175        -1.50448
O         57.61722        61.50146         2.60743
H         58.36883        62.12884         2.75578
O         44.89456        48.47855         1.83636
H         45.29015        48.13570         2.66862
O         54.65471        54.78320         3.68057
H         55.23367        54.19068         4.20787
O         68.50696        52.52105         1.76598
H         67.72673        52.21848         2.27702
O         43.53885        53.41444        -3.27159
H         42.82057        53.35095        -3.94587
O         51.45732        50.64443        -0.91534
H         50.68842        51.06485        -1.35870
O         63.21822        54.70475        -1.56996
H         62.34844        55.08241        -1.81997
O         70.21828        60.92515         1.60731
H         70.08323        61.81445         2.08142
O         66.33012        38.81706         2.48847
H         65.53087        38.32471         2.77894
H         37.84792        49.05065        -2.38886
H         35.74491        50.27757        -2.02937
H         37.90376        54.00691        -1.89008
H         35.76454        52.76526        -1.75250
H         39.44215        48.19085        -3.03422
H         39.57064        55.04772        -2.35230
H         41.58025        46.93490        -3.06731
H         41.50989        56.05140        -1.26507
H         44.83340        44.72920         0.79119
H         43.57541        45.48513        -1.19636
H         45.00609        58.09145        -0.04308
H         42.98949        56.75070         0.12355
H         46.51725        43.77421         1.31840
H         46.70390        59.12057        -0.47815
H         48.54078        42.57051         0.81481
H         48.66659        60.38682         0.17803
H         52.42930        40.45214         0.40736
H         50.26591        41.56393         0.68154
H         52.36370        62.52914         1.10312
H         50.23137        61.31994         1.09626
H         54.12975        39.82978        -0.72220
H         54.00344        63.36076         0.44171
H         56.29613        38.65429        -0.78904
H         56.12509        64.53131         0.13177
H         59.72379        36.12154         0.52343
H         57.63001        37.44417         0.40911
H         59.86687        66.67528        -0.39939
H         57.76866        65.57361         0.04445
H         61.40575        35.28614        -0.46215
H         61.50155        67.59230        -0.61907
H         63.51494        34.05570        -0.64065
H         63.57508        68.72562        -1.12429
H         66.96757        32.88329        -3.18022
H         65.16743        33.37039        -1.60967
H         67.24256        70.90447        -1.10220
H         65.20184        69.63936        -1.01011
H         68.06142        33.10578        -4.85864
H         68.97601        71.87759        -1.30289
H         72.13193        33.70197        -6.16747
H         69.82391        32.82642        -6.54801
H         72.72550        34.80055        -4.03154
H         72.97088        36.29079        -2.57609
H         72.92531        38.59437        -1.82879
H         73.12563        40.02661        -0.46803
H         73.19500        42.11950         0.70752
H         73.20245        43.83913         1.52834
H         73.15413        46.24984         1.43075
H         73.08968        48.19865         1.73733
H         73.06581        50.48518         0.87061
H         73.03617        52.39901         0.49968
H         73.04394        54.64571        -0.31591
H         73.11235        56.48197        -0.68402
H         73.06320        58.89763        -0.67216
H         72.85819        60.72790        -1.49736
H         72.95920        63.15019        -1.40254
H         73.22628        65.04353        -0.81687
H         73.22592        67.45284        -1.07381
H         73.24841        69.31680        -1.24261
H         73.28442        71.77027        -1.18897
H         71.14477        73.07020        -1.18301
