         324
 CSIRO Nanostructure Databank - Neutral Graphene Oxide Data Set
C          1.26151         2.09021        -0.74301
C          1.24884         3.49868        -0.49694
C          2.40504         1.44865        -1.08288
C          2.41696         4.25092        -0.49674
C          1.16137         6.43209        -0.36002
C          1.13420         7.79452        -0.10540
C          2.36046         5.70038        -0.24354
C          2.28750         8.50841         0.30123
C          1.09118        10.68587         0.25513
C          1.08633        12.11752         0.20893
C          2.23872         9.95683         0.46212
C          2.25329        12.83906         0.08031
C          1.15182        15.05125        -0.16292
C          1.16900        16.47159        -0.26749
C          2.29358        14.26206        -0.18830
C          2.34578        17.16545        -0.45242
C          2.45923        18.61265        -0.37283
C          3.72752         2.15065        -1.24399
C          3.68636         3.61189        -0.74344
C          4.80790         1.33394        -0.52654
C          4.85712         4.33513        -0.43754
C          3.52206         6.40467         0.14704
C          3.49926         7.78174         0.45050
C          4.76655         5.62169         0.29686
C          4.75378         8.47726         0.86026
C          3.45093        10.76878         0.90935
C          3.52856        12.06048         0.11290
C          4.76387         9.98702         0.96165
C          4.85349        12.75584         0.01145
C          3.59205        14.89392        -0.52018
C          3.57936        16.39935        -0.68881
C          4.88371        14.21903        -0.18220
C          4.84548        17.15010        -0.45215
C          3.61971        19.27945        -0.58813
C          4.89157        18.56299        -1.00364
C          6.11943         1.67441        -0.69174
C          6.16408         3.85092        -0.68177
C          7.36727         1.22977        -0.15567
C          7.34979         4.33417        -0.08283
C          6.06655         6.35046         0.58474
C          6.05936         7.80797         0.68822
C          7.34837         5.67458         0.35947
C          7.26523         8.49924         0.79770
C          6.05899        10.68530         0.74809
C          6.08281        12.07579         0.47864
C          7.26982         9.95448         0.82665
C          7.29882        12.79983         0.54166
C          6.07142        14.90051        -0.08910
C          6.08846        16.38849        -0.19221
C          7.32686        14.23393         0.26270
C          7.36645        17.08219        -0.52171
C          6.17322        19.26247        -0.62428
C          7.36754        18.57279        -0.49354
C          8.53558         2.02748        -0.12158
C          8.56114         3.51141        -0.04853
C          9.76187         1.32793         0.04070
C          9.73299         4.14562         0.31171
C          8.54403         6.38116         0.64911
C          8.51655         7.76560         0.86532
C          9.76998         5.55461         0.78885
C          9.76143         8.50873         1.17723
C          8.51404        10.66403         0.82521
C          8.49746        12.08626         0.78776
C          9.76292         9.97187         0.93653
C          9.74404        12.80611         1.04102
C          8.52150        14.94522         0.29248
C          8.62752        16.32621        -0.23680
C          9.76032        14.35641         0.81833
C          9.86397        17.09731        -0.02154
C          8.61826        19.22706        -0.33928
C          9.84051        18.52817        -0.14654
C         11.01799         1.95802         0.11287
C         11.01937         3.43689         0.18544
C         12.22321         1.23984         0.10546
C         12.30674         4.13660         0.44338
C         11.07356         6.23781         1.16375
C         11.08088         7.74503         1.31486
C         12.44915         5.52793         1.07329
C         12.38513         8.48884         1.07797
C         10.98245        10.68890         0.90968
C         11.00639        12.09158         0.95691
C         12.29702         9.97507         0.89223
C         12.26489        12.86710         1.03510
C         11.05556        15.01132         0.56863
C         11.06138        16.41508         0.25102
C         12.26516        14.32100         0.75677
C         12.30236        17.12960         0.26681
C         11.05979        19.23691        -0.02681
C         12.29375        18.56629         0.14221
C         13.50755         1.86763         0.15376
C         13.55990         3.32140         0.46884
C         14.69661         1.18635        -0.02547
C         14.77032         4.12342         0.11419
C         13.53903         6.27811         0.29841
C         13.68968         7.73367         0.70496
C         14.66293         5.59497        -0.08832
C         14.62321         8.49973        -0.22344
C         13.33647        10.75874         0.09977
C         13.56599        12.11724         0.71866
C         14.61019         9.99060        -0.26428
C         14.73611        12.85997         0.24274
C         13.50859        14.98553         0.50966
C         13.51955        16.42175         0.35039
C         14.71789        14.25467         0.30173
C         14.75426        17.14346         0.27876
C         13.51658        19.26971         0.20459
C         14.75195        18.58219         0.27444
C         15.96941         1.89079        -0.29871
C         15.96846         3.40755        -0.40700
C         17.27031         1.27193        -0.09968
C         17.24372         4.15921        -0.34683
C         15.90189         6.27207        -0.58138
C         15.91377         7.80000        -0.57613
C         17.18893         5.54766        -0.52073
C         17.16437         8.56084        -0.46530
C         15.91179        10.71623        -0.27328
C         15.92168        12.10951        -0.12565
C         17.15383         9.96639        -0.29992
C         17.18434        12.83274        -0.13859
C         15.93691        14.99299        -0.18807
C         15.98875        16.44476         0.21818
C         17.20148        14.20540         0.02209
C         17.19368        17.13932         0.26422
C         15.98702        19.27453         0.26892
C         17.21400        18.57855         0.28176
C         18.46915         2.00190        -0.18012
C         18.46833         3.44507        -0.33191
C         19.71457         1.33408        -0.03810
C         19.70751         4.16629        -0.38597
C         18.43406         6.26976        -0.77660
C         18.41359         7.83488        -0.71299
C         19.71241         5.57789        -0.55432
C         19.69595         8.46670        -0.31245
C         18.39918        10.69694        -0.26675
C         18.42492        12.09179        -0.21476
C         19.68487         9.97319        -0.16184
C         19.68038        12.81107        -0.28018
C         18.47607        14.89686         0.25160
C         18.47587        16.41428         0.36985
C         19.72359        14.21185        -0.11370
C         19.72941        17.12825         0.11658
C         18.46201        19.25380         0.25296
C         19.69890        18.56551         0.13227
C         20.94388         2.02611        -0.11138
C         20.94015         3.45031        -0.31682
C         22.18072         1.35129         0.01983
C         22.17122         4.14767        -0.46791
C         20.94729         6.30009        -0.58789
C         20.97344         7.75748        -0.55264
C         22.15417         5.57261        -0.58704
C         22.15252         8.49551        -0.52272
C         20.94394        10.69144        -0.43826
C         20.89187        12.08805        -0.52236
C         22.16762         9.94433        -0.55304
C         22.10708        12.86337        -0.80820
C         20.94389        14.96587        -0.19763
C         20.93319        16.41954        -0.06510
C         22.14639        14.30979        -0.50654
C         22.15733        17.14410        -0.18464
C         20.92245        19.26462         0.08654
C         22.15213        18.57661        -0.02885
C         23.41006         2.03247        -0.12658
C         23.39844         3.42652        -0.41983
C         24.65525         1.36048         0.10541
C         24.66450         4.07932        -0.79652
C         23.43909         6.29161        -0.51199
C         23.45303         7.79147        -0.45571
C         24.68159         5.57484        -0.94876
C         24.71179         8.51887        -0.74454
C         23.40953        10.61967        -0.68718
C         23.40452        12.08505        -0.87700
C         24.65116         9.92526        -0.79870
C         24.64543        12.85495        -0.58622
C         23.39722        15.01993        -0.60039
C         23.39419        16.46881        -0.42525
C         24.60727        14.32536        -0.71257
C         24.59839        17.19408        -0.37772
C         23.37831        19.27797         0.03535
C         24.60938        18.60051        -0.07725
C         25.89618         2.00081         0.01995
C         25.97090         3.34630        -0.60866
C         27.08014         1.39993         0.49105
C         27.31207         4.10170        -0.65282
C         25.97740         6.33442        -0.86204
C         25.94626         7.81327        -0.74044
C         27.21191         5.61946        -0.51160
C         27.18640         8.48651        -0.70726
C         25.89991        10.66808        -1.07761
C         25.94209        12.12208        -0.74047
C         27.23340         9.92442        -0.99024
C         27.20182        12.88881        -0.96956
C         25.88533        15.02746        -0.86343
C         25.87998        16.54850        -0.67483
C         27.17468        14.32964        -0.65941
C         27.13603        17.18647        -0.24849
C         25.84687        19.27941         0.05418
C         27.09126        18.59615         0.03777
C         28.27275         2.15496         0.66250
C         28.30829         3.51612         0.32088
C         29.48411         1.48833         1.10866
C         29.42787         4.33860         0.73840
C         28.36010         6.36425        -0.21538
C         28.38775         7.80123        -0.38884
C         29.55262         5.72056         0.26383
C         29.61517         8.51715        -0.22965
C         28.49028        10.65384        -0.72021
C         28.51886        12.13313        -0.87903
C         29.63591         9.96183        -0.41780
C         29.63952        12.89683        -0.31009
C         28.34411        15.01011        -0.36415
C         28.32786        16.45801        -0.14373
C         29.56769        14.25403        -0.11606
C         29.54092        17.14591         0.20774
C         28.30043        19.27485         0.28174
C         29.52214        18.57348         0.35223
C         30.67178         2.13612         1.23095
C         30.72575         3.60127         1.21733
C         31.97206         4.34138         1.00292
C         30.76060         6.41830         0.41348
C         30.79587         7.83380         0.15303
C         31.96925         5.66957         0.71352
C         32.00459         8.60020         0.38000
C         30.95524        10.71751        -0.46370
C         30.85284        12.12317         0.17403
C         32.08510         9.92885         0.14697
C         32.09000        12.95579        -0.09286
C         30.75608        14.93478         0.55345
C         30.75706        16.44515         0.43568
C         32.03628        14.28311         0.06131
C         31.91151        17.15757         0.74431
C         30.73607        19.26755         0.62903
C         31.90991        18.56790         0.80664
O         19.68414         9.07641         1.01716
O         25.31721         3.37639        -1.91657
O          3.59468        15.52804        -1.85416
O         29.80150         4.21177         2.15345
O         13.17867        12.37125         2.07908
O         18.46749         7.13083        -1.97692
O         25.38535        12.36770         0.59752
O          6.32658         2.79701        -1.56806
O         14.19506         9.16642        -1.44342
O         10.26765         5.60615         2.18420
O         26.59576        10.28371        -2.28030
O         18.53533        15.55988         1.57878
O         15.83101         2.63946        -1.61800
O          5.35275        17.04429         0.91356
O         25.92712        15.94391        -2.01240
O         22.74395        12.52249        -2.10310
O         12.69026         9.42560         2.16447
O          4.24077        12.01035        -1.14587
O          8.08769        16.46909        -1.62419
O          9.65327        13.77247         2.14510
O          5.28812         5.63577         1.65759
O         12.96203         5.49854         2.36877
O         23.60524         6.97339         0.78381
O         14.50505         3.69003         1.50362
O         10.37082         8.17965         2.48875
O         25.30845         5.97912        -2.18886
O         15.74065         7.03824        -1.81942
O         27.97372        12.58628        -2.16372
O         11.78572         4.13254        -0.92001
O          4.73206         9.15942         2.17515
O         12.68457        11.11387        -1.15823
H         12.90216        10.40394        -1.80927
O          3.18475        11.20971         2.26730
H          3.40676        10.45308         2.85790
O          3.98765         2.17510        -2.67344
H          4.92529         2.45648        -2.78719
O          4.87476        18.44931        -2.45667
H          4.91400        19.35132        -2.83623
O         27.87149         3.86799        -1.98169
H         27.10976         3.91152        -2.60744
O         15.79716        15.06496        -1.66324
H         15.60552        14.15838        -1.98731
O         31.27756        10.94467        -1.86166
H         31.22948        10.08627        -2.33145
O         30.69714        11.93960         1.61333
H         31.46181        11.41533         1.93481
O         30.65069        14.68165         1.98445
H         30.61063        13.69911         2.10533
O         14.45330         7.62935         1.93049
H         13.99756         6.90433         2.46173
H          0.31398         1.53713        -0.67191
H          0.28480         3.97645        -0.27644
H          2.38552         0.37508        -1.32106
H          0.23553         5.93488        -0.67921
H          0.18087         8.32331        -0.23198
H          0.13102        10.18543         0.06674
H          0.11103        12.61913         0.14255
H          0.18024        14.57925         0.04014
H          0.22627        17.01898        -0.12217
H          1.54626        19.17749        -0.12650
H          4.51301         0.54990         0.18359
H          3.63401        20.37932        -0.53116
H          7.47497         0.16666         0.11057
H          6.18593        20.36417        -0.60700
H          9.73009         0.22769         0.03819
H          8.64443        20.32669        -0.36999
H         12.18186         0.14729        -0.02254
H         11.05232        20.33409        -0.10665
H         14.68609         0.09062        -0.13365
H         13.51150        20.36877         0.16022
H         17.31309         0.20828         0.17853
H         15.98878        20.37373         0.22911
H         19.72104         0.24411         0.10813
H         18.47222        20.35321         0.28663
H         22.18453         0.26947         0.21705
H         20.92382        20.36145         0.16610
H         24.62116         0.32635         0.48036
H         23.37001        20.36514         0.20080
H         27.05133         0.35808         0.84244
H         25.84058        20.36386         0.23831
H         29.44719         0.39268         1.20191
H         28.28823        20.36116         0.45458
H         31.60538         1.57345         1.37901
H         32.92366         3.79284         1.06753
H         32.93840         6.17466         0.59987
H         32.88744         8.08489         0.78348
H         33.03766        10.45036         0.32772
H         33.00956        12.46229        -0.44096
H         32.92623        14.89906        -0.13651
H         32.84500        16.62307         0.96839
H         30.71608        20.36305         0.71915
H         32.84366        19.09983         1.03600
