         288
 CSIRO Nanostructure Databank - Neutral Graphene Oxide Data Set
C        -10.81279         0.62002        -1.38124
C         -9.71586         1.49127        -0.89013
C         -8.49459         0.84017        -0.33173
C         -7.19477         1.56051        -0.34958
C         -6.03560         0.85359         0.24143
C         -4.71683         1.61196         0.20254
C         -3.48102         0.80949         0.50456
C         -2.18396         1.33300        -0.00833
C         -0.93494         0.57579         0.29311
C          0.36931         1.32525         0.33846
C          1.56976         0.63389         0.92026
C          2.71396         1.52124         1.42554
C          4.07424         0.79726         1.37581
C          5.26046         1.51531         0.81538
C          6.32502         0.72669         0.08651
C          7.67021         1.46234         0.09845
C          8.88978         0.70963        -0.33157
C         10.18126         1.45213        -0.66838
C         11.05563         0.66539        -1.62289
C         -9.50578         2.80979        -1.59897
C         -8.41239         3.67459        -0.92150
C         -7.11661         2.89692        -0.68799
C         -5.83192         3.57586        -0.77586
C         -4.65053         2.91178        -0.51147
C         -3.31716         3.55814        -0.73036
C         -2.09937         2.79823        -0.33066
C         -0.97565         3.50885         0.36158
C          0.34679         2.82899         0.37725
C          1.47245         3.56324         0.63012
C          2.78450         2.80780         0.58918
C          4.01855         3.61220         0.93754
C          5.27614         2.87189         0.64662
C          6.44817         3.58829         0.14477
C          7.63643         2.93332        -0.06295
C          8.80539         3.61690        -0.63077
C          9.92655         2.90015        -1.03475
C         -8.23823         5.00398        -1.68098
C         -7.04723         5.79042        -1.21371
C         -5.77864         5.00758        -1.20212
C         -4.48774         5.76720        -1.11690
C         -3.15212         5.10080        -0.79533
C         -2.49201         5.64971         0.48118
C         -1.13480         4.93429         0.79541
C          0.13597         5.72113         1.22842
C          1.44249         5.01682         0.81044
C          2.60560         5.73815         0.72271
C          3.93244         5.06363         0.68298
C          5.06373         5.75912         0.00512
C          6.28887         4.96717        -0.44122
C          7.56413         5.77801        -0.48130
C          8.74947         5.04159        -0.74917
C         -7.09477         7.13650        -1.09196
C         -5.87883         7.97330        -0.98808
C         -4.54367         7.26764        -0.98533
C         -3.37514         7.97264        -0.34997
C         -2.37742         7.18728         0.45683
C         -1.13852         7.92689         0.86208
C          0.16357         7.16599         0.69070
C          1.39202         7.94483         1.17945
C          2.68247         7.20004         1.01122
C          3.90453         7.95719         0.67432
C          5.08621         7.23944         0.13574
C          6.40198         7.97792         0.12245
C          7.54396         7.16368        -0.43931
C         -5.93857         9.34945        -0.44613
C         -4.82645        10.05672        -0.15714
C         -3.47048         9.45531        -0.11868
C         -2.41454        10.14936         0.73752
C         -1.08412         9.40983         0.67889
C          0.08545        10.07936         0.70051
C          1.40903         9.48074         1.12525
C          2.60458        10.02129         0.37706
C          3.80603         9.32609         0.29191
C          4.97900         9.95993        -0.33370
C          6.17417         9.35058        -0.47273
C        -10.86442        -0.68440        -1.08214
C         -9.80305        -1.37563        -0.26191
C         -8.40858        -0.66906        -0.38985
C         -7.41910        -1.23492         0.65002
C         -6.02354        -0.63758         0.45553
C         -4.88557        -1.33595         0.73861
C         -3.55525        -0.65849         0.82055
C         -2.26756        -1.42739         0.88435
C         -1.06014        -0.78714         0.87974
C          0.13228        -1.49968         1.49690
C          1.48226        -0.75093         1.50720
C          2.80320        -1.48482         1.64845
C          4.09977        -0.70399         1.48931
C          5.36613        -1.45827         1.13615
C          6.53298        -0.70234         0.56917
C          7.69637        -1.48021        -0.07794
C          8.57602        -0.61840        -0.99653
C          9.74187        -1.42317        -1.49899
C         10.91982        -0.65886        -1.87530
C         -9.55889        -2.77589        -0.75904
C         -8.42784        -3.40068        -0.39641
C         -7.50311        -2.82561         0.67235
C         -6.15822        -3.53512         0.66102
C         -4.92525        -2.81156         1.17005
C         -3.63336        -3.53099         0.64805
C         -2.34603        -2.90134         1.24099
C         -1.07924        -3.66354         0.72499
C          0.25745        -2.93588         0.99325
C          1.52356        -3.67989         1.26845
C          2.84042        -2.96928         1.50494
C          3.98956        -3.65058         1.19274
C          5.29691        -2.96297         0.97044
C          6.31410        -3.60044         0.03709
C          7.12440        -2.65949        -0.86834
C          8.22057        -3.38811        -1.63366
C          9.51295        -2.73351        -1.82799
C         -8.06482        -4.70748        -1.04128
C         -7.34306        -5.61572        -0.04159
C         -6.10764        -4.88359         0.47886
C         -4.86289        -5.64861         0.69598
C         -3.65678        -5.03198         0.84085
C         -2.36631        -5.86324         0.80878
C         -1.12612        -5.09358         1.26308
C          0.12170        -5.83494         1.64428
C          1.49111        -5.12198         1.77861
C          2.67635        -5.88598         1.18271
C          3.94520        -5.13631         0.93166
C          4.89346        -5.73957        -0.08119
C          6.05889        -4.95723        -0.55416
C          6.54579        -5.19739        -1.98737
C          7.92256        -4.60275        -2.16681
C         -6.92004        -6.94446        -0.71946
C         -6.13749        -7.82835         0.22473
C         -4.98851        -7.12206         0.87033
C         -3.78064        -7.93040         1.25786
C         -2.47563        -7.23530         1.48068
C         -1.19973        -8.11977         1.67730
C          0.13793        -7.35005         1.58898
C          1.37225        -8.05526         1.06317
C          2.46746        -7.20794         0.52406
C          3.33349        -7.66793        -0.41321
C          4.26465        -6.69156        -1.11079
C          5.32699        -7.35877        -1.97190
C          6.41901        -6.65357        -2.35706
C         -6.14962        -9.32106         0.15055
C         -5.04162       -10.01187         0.46182
C         -3.71840        -9.28638         0.49609
C         -2.50634       -10.10275         0.79704
C         -1.21065        -9.33963         0.69373
C          0.02949       -10.24320         0.88770
C          1.25145        -9.42807         0.49909
C          2.16448        -9.88977        -0.37776
C          3.45105        -9.15440        -0.66531
C          4.07985        -9.48058        -1.99318
C          5.02640        -8.67928        -2.51763
O         -3.42614         5.34151         1.52559
H         -3.03953         5.65089         2.37437
O          8.57182         0.84579         1.08258
O          4.15152         4.52982         2.05954
O          6.22880        -6.06811         0.37895
O         -8.13174        -3.17864         1.92915
H         -7.59359        -2.75785         2.63927
O         -3.37556        -7.51556         2.59110
O         -1.39064         3.85258         1.74743
O         -6.00109        -6.52979        -1.84715
H         -5.29382        -5.87268        -1.54088
O         -7.85950        -0.97676        -1.70041
H         -8.34114        -0.43994        -2.36668
O         -9.50249         1.43227         0.56249
O          1.15543        -3.27685        -0.10987
O         -6.21789        -7.41823         1.63395
O         -1.55555         0.54409        -1.05651
O          1.13025        -7.91834         2.50054
O          6.09104         4.68582        -1.92884
O         10.97824         1.55351         0.55169
H         10.34187         1.47339         1.30318
O          6.51391        -3.60965         1.46543
O          2.09565        -0.92834         2.81366
O         -5.38471        -7.64027        -2.47807
H         -4.72750        -8.06615        -1.79404
O         -1.27571        -8.66625         2.99732
H         -1.20703        -7.92959         3.64069
O          0.14642       -10.76746         2.20033
H          0.00448       -10.02678         2.83718
O         -4.97000         5.27186        -2.41278
O         -2.44342        -3.08198         2.66021
H         -1.66797        -2.62525         3.08375
O          2.42412         1.88555         2.77616
H          2.88971         1.23793         3.35833
O          4.34398         0.15016         2.65713
O         -0.81053        -5.30155         2.65419
O          4.63448         6.60108        -1.11634
O         -2.15062         7.58981         1.86641
O         -2.41624         2.98588        -1.74056
O          3.49157        -5.83985        -1.95433
O          2.06501         7.46353         2.36245
O         -3.58805        -3.23079        -0.81439
O          3.79861        -5.95392         2.14393
O          4.41364        -9.62389         0.33836
H          4.07659        -9.36545         1.22287
O         -5.02390         7.90128        -2.19197
O          6.14861        -2.09772        -1.78732
O         -2.81570         8.92900        -1.31738
O         -3.46665         0.37568         1.88861
O          7.82460        -0.30649        -2.24980
H          5.85472        -2.83929        -2.39824
O         -7.17987        -4.42713        -2.14686
H         -7.45530        -3.56976        -2.53785
O         -5.56587         1.64397         1.38524
O        -10.22571        -1.41729         1.11728
H         -9.78501        -2.19258         1.54773
O          1.36398         0.65694        -0.51263
O          6.45751        -0.97136         1.98601
O          5.04232         3.69594        -2.06721
H          5.52890         2.83099        -2.10896
O         -8.02797         4.79292        -3.09618
H         -7.08668         4.97728        -3.30853
O         -8.90408         4.06873         0.37705
H         -9.08223         3.24271         0.89097
O         -2.84026        10.23890         2.09941
H         -2.70622         9.35294         2.50961
O         -3.61331        -8.75937        -0.89755
H         -2.65142        -8.50282        -1.02069
O         -2.25561         5.44340        -1.85386
H         -2.65751         5.15222        -2.70074
O          1.57758         9.96753         2.49228
H          2.01464         9.23404         2.99072
O          0.09348         5.79603         2.65455
H         -0.08467         4.89100         2.99362
O          5.60494        -4.47249        -2.85181
H          4.70053        -4.91946        -2.69795
O          1.70952        -4.96590         3.19261
H          2.57840        -5.38721         3.40401
O         -5.04504        -2.85239         2.59899
H         -4.14191        -2.73403         2.99117
O         -2.19411        -6.19397        -0.60194
H         -1.89104        -5.35286        -1.04068
O         -0.24752        -1.64821         2.89689
H          0.58845        -1.63130         3.43084
O          0.31343         7.03120        -0.74724
H          0.09314         7.88066        -1.18507
O         -1.02981        -8.74850        -0.63347
H         -0.78037        -9.46999        -1.24914
O          8.57681        -1.96291         0.93556
H          8.04881        -2.05686         1.76503
O         -8.28569        -5.92187         0.97985
H         -7.79371        -6.30096         1.74548
O          5.75765         0.68264        -1.25260
H          5.87814        -0.22203        -1.64402
O          6.73454         8.17729         1.53661
H          7.54171         8.73097         1.58397
O          8.51857         0.80898        -2.88849
H          8.55289         0.51297        -3.83042
O         -4.37723        -4.23441        -1.56790
H         -4.31738        -3.83943        -2.47322
O         -9.13705         2.42569        -2.92762
H         -8.80783         3.23846        -3.39011
O         -7.80259        -0.73810         1.94356
H         -8.74919        -0.45978         1.91512
O          3.01842         2.41533        -0.78030
H          3.41732         3.16698        -1.28063
O         -1.19305        -3.75114        -0.71403
H         -0.27517        -3.69525        -1.08170
H         11.69394        -1.17560        -2.46537
H         11.95561         1.18513        -1.98735
H         10.77963         3.46259        -1.44699
H          9.67510         5.58758        -0.98713
H          8.50250         7.69469        -0.56818
H          7.01508         9.87733        -0.95002
H          4.83982        10.98170        -0.72013
H          2.57167        11.07440         0.05886
H          0.06451        11.17930         0.63434
H         -2.28201        11.19533         0.35959
H         -4.92270        11.08171         0.23134
H         -6.93006         9.81488        -0.33885
H         -8.06988         7.64708        -1.14361
H         -9.18067         5.59704        -1.55763
H        -10.46292         3.40756        -1.61954
H        -11.59471         1.08573        -1.99939
H        -11.70596        -1.29892        -1.43755
H        -10.24586        -3.23536        -1.48827
H         -8.98896        -5.22274        -1.42448
H         -7.77125        -7.46017        -1.21747
H         -7.12748        -9.81092         0.02572
H         -5.06347       -11.10833         0.53614
H         -2.57912       -10.68075         1.73506
H         -0.05459       -11.11330         0.18295
H          2.04905       -10.90458        -0.79396
H          3.85738       -10.45733        -2.44933
H          5.57055        -8.98983        -3.42436
H          7.15652        -7.09302        -3.04737
H          8.67600        -5.15774        -2.74760
H         10.30843        -3.32276        -2.31139
