         651
 CSIRO Nanostructure Databank - Neutral Graphene Oxide Data Set
C          5.85196        31.74516         0.92716
C          5.84524        33.11247         0.96694
C          8.33755        27.46885         1.11472
C          8.31685        28.82991         0.93893
C          7.10039        29.60109         0.97117
C          8.31495        31.75497         0.86646
C          7.08413        30.99462         0.89772
C          8.30505        33.13186         0.87348
C          7.06864        33.87614         0.95561
C          8.27368        36.04797         1.00478
C          7.07743        35.26623         1.10450
C          8.29940        37.42248         1.13039
C         10.94709        23.17759         1.16070
C         10.86230        24.55916         0.86590
C          9.64694        25.23637         1.03354
C         10.90778        27.41026         1.00915
C          9.59590        26.68921         1.18041
C         10.87539        28.87262         0.77682
C          9.56111        29.58967         0.52575
C         10.86056        31.72065         0.70507
C          9.59765        30.99730         1.11966
C         10.77443        33.17910         0.30439
C          9.60615        33.88632         1.00614
C         10.79985        36.09583         0.71562
C          9.50620        35.34115         0.46984
C         10.77045        37.47880         0.72577
C          9.49703        38.19654         0.85538
C         10.62524        40.34188         0.17268
C          9.45842        39.56615         0.73065
C         10.68912        41.80132         0.55772
C         13.54620        18.94647         1.17876
C         13.31617        20.29581         0.79421
C         12.23499        21.08547         1.23888
C         13.13649        23.08289         0.05105
C         12.11513        22.44782         0.86664
C         13.23472        24.54369        -0.01958
C         12.08478        25.25600         0.45348
C         13.30878        27.36207         0.36575
C         12.10421        26.66131         0.54756
C         13.33014        28.79123         0.78526
C         12.04953        29.56104         0.77080
C         13.31199        31.77653         0.64811
C         12.03269        31.02929         0.67762
C         13.31224        33.22551         0.14522
C         12.05152        33.96999         0.50845
C         13.32362        36.08571         0.71705
C         12.04039        35.33441         0.63546
C         13.28342        37.57546         0.67286
C         11.98204        38.27984         0.59242
C         13.17584        40.41802         0.04765
C         11.93747        39.62890         0.39135
C         13.16975        41.83246         0.60071
C         11.87319        42.51791         0.66819
C         13.07314        44.68205         1.01363
C         11.88019        43.94099         0.81364
C         13.11994        46.06558         0.87925
C         15.71329        14.61227         0.40772
C         15.82414        16.12046         0.38658
C         14.78377        16.82741         0.93374
C         15.63661        18.85832        -0.14859
C         14.66278        18.23799         0.71705
C         15.23050        20.06200        -0.72753
C         14.15851        20.84474        -0.23106
C         15.79819        23.30359        -1.36354
C         13.96607        22.19468        -0.63022
C         15.67612        24.66457        -0.90271
C         14.43738        25.27302        -0.34836
C         15.74600        27.43608        -0.05847
C         14.48730        26.67914        -0.03694
C         15.82031        28.78501         0.20277
C         14.63141        29.52908         0.67374
C         15.73094        31.73023        -0.15092
C         14.60527        31.03633         0.60671
C         15.81461        33.22987         0.03684
C         14.60901        33.95679         0.56695
C         15.72715        36.13400         0.03220
C         14.57705        35.43441         0.27082
C         15.77230        37.58301         0.12122
C         14.52065        38.30084         0.30529
C         15.70184        40.44546         0.33167
C         14.46227        39.66573         0.29159
C         15.60266        41.74902         1.04815
C         14.32656        42.49930         0.88385
C         15.62784        44.63147         1.52403
C         14.30925        43.91670         1.32870
C         15.69451        46.12243         1.37189
C         14.34144        46.86192         1.04806
C         15.70250        48.79616         0.28630
C         14.47315        48.14818         0.39126
C         15.74900        50.14966        -0.17264
C         18.22759        10.33871        -0.23817
C         18.21452        11.76356        -0.08312
C         17.00396        12.49921         0.08266
C         18.19160        14.63348        -0.11136
C         16.99981        13.88624         0.12248
C         18.15889        16.04584        -0.32927
C         16.97840        16.79992        -0.16938
C         18.10006        18.95666        -0.78786
C         16.92347        18.22723        -0.43721
C         18.18851        20.39227        -0.99346
C         17.05397        21.14877        -1.36642
C         18.28440        23.26182        -1.50648
C         17.00160        22.56752        -1.30377
C         18.08645        24.81284        -1.54976
C         16.87711        25.37894        -0.94072
C         18.34368        27.39901        -0.23425
C         17.00817        26.68338        -0.26797
C         18.37236        28.86825        -0.11624
C         17.10010        29.54560         0.22181
C         18.24289        31.77386        -0.41815
C         17.05004        31.04142         0.10509
C         18.22033        33.25162        -0.36221
C         16.99607        33.93445        -0.22927
C         18.24225        36.17996        -0.48233
C         16.90872        35.42035        -0.59051
C         18.26112        37.60101        -0.07382
C         16.99123        38.26711         0.04504
C         18.26408        40.35103         0.67864
C         17.01562        39.73206         0.20373
C         18.17254        41.55916         1.58174
C         16.87196        42.40111         1.49026
C         18.16533        44.65220         1.47328
C         16.90920        43.88350         1.13894
C         18.17689        45.98336         1.08977
C         16.95257        46.73807         0.92384
C         18.17978        48.79410         0.25331
C         16.95781        48.09698         0.52359
C         18.19974        50.15462        -0.08400
C         16.94732        50.83399        -0.30779
C         18.15254        52.89776        -0.85222
C         16.97835        52.20943        -0.71860
C         18.05866        54.35383        -1.24760
C         20.63084         6.14112        -1.27428
C         20.61731         7.48575        -0.86797
C         19.42537         8.22497        -0.74772
C         20.69847        10.27275        -0.11844
C         19.40576         9.59343        -0.36583
C         20.69301        11.78418        -0.07073
C         19.42205        12.50604        -0.14340
C         20.67343        14.63645        -0.25824
C         19.43070        13.92060        -0.20728
C         20.69240        16.05410        -0.36356
C         19.41327        16.71988        -0.70761
C         20.66628        18.94292        -0.63980
C         19.39472        18.22469        -0.89421
C         20.64313        20.34671        -0.60734
C         19.45260        21.10589        -0.87178
C         20.79272        23.18313        -1.04815
C         19.54805        22.52471        -1.17111
C         21.10819        24.50379        -1.54200
C         19.27928        25.65336        -1.63477
C         20.77413        27.52491        -0.96963
C         19.49367        26.82408        -0.97375
C         20.80269        28.84995        -0.60376
C         19.54367        29.54752        -0.34322
C         20.81001        31.77851        -0.52456
C         19.52062        31.02329        -0.54590
C         20.79779        33.22187        -0.13772
C         19.49896        33.96071        -0.18701
C         20.77497        36.14618         0.00384
C         19.54095        35.43570        -0.37918
C         20.73872        37.51671         0.18928
C         19.47604        38.25890         0.17288
C         20.70299        40.38735         0.85633
C         19.45463        39.66345         0.59171
C         20.70164        41.69906         1.27199
C         19.44708        42.40604         1.66009
C         20.70240        44.78363         1.92217
C         19.42256        43.92674         1.78080
C         20.74607        46.03555         1.07662
C         19.45910        46.62439         0.70145
C         20.72765        48.80240         0.23923
C         19.45602        48.06196         0.23299
C         20.69286        50.20634        -0.03050
C         19.44397        50.86568        -0.24493
C         20.63981        52.97877        -0.64852
C         19.42940        52.25457        -0.58612
C         20.58908        54.41826        -1.01075
C         19.37467        54.93755        -1.68198
C         20.68220        56.70019        -2.82902
C         19.43695        56.02223        -2.48959
C         20.65345        57.65473        -3.83464
C         23.04633         3.44979        -2.30994
C         21.83712         4.09269        -1.94994
C         23.11570         6.10167        -1.34314
C         21.83622         5.41192        -1.48128
C         23.13541         7.40968        -0.94723
C         21.92244         8.10579        -0.40476
C         23.09402        10.33721        -0.76912
C         21.95604         9.61303        -0.53266
C         23.12605        11.79326        -0.62364
C         21.93158        12.49976        -0.38116
C         23.14351        14.60978        -0.28042
C         21.91798        13.91285        -0.32606
C         23.14505        16.04704         0.16621
C         21.88530        16.79092        -0.24706
C         23.13485        18.92800        -0.26571
C         21.89173        18.21796        -0.37854
C         23.17235        20.33009        -0.26107
C         21.88331        21.04345        -0.22282
C         23.23831        23.22300        -0.36404
C         21.91561        22.55267        -0.33242
C         23.19389        24.73157        -0.21097
C         22.09131        25.31152        -1.04483
C         23.34363        27.52311        -1.11593
C         22.05028        26.79089        -1.26675
C         23.38176        28.96645        -0.76069
C         22.09448        29.54676        -0.20152
C         23.35847        31.76105         0.03922
C         22.09091        31.04527        -0.40317
C         23.27201        33.27256        -0.08888
C         22.09337        33.95139        -0.18378
C         23.26248        36.07674         0.44777
C         22.09778        35.46306        -0.29582
C         23.15700        37.49069         0.73850
C         21.98720        38.20202         0.50814
C         23.26105        40.43861         0.59302
C         21.94609        39.70573         0.29301
C         23.24717        41.89603         0.97748
C         21.95616        42.46390         1.45631
C         23.22307        44.64773         1.48006
C         21.97247        43.95756         1.79511
C         23.22331        45.95105         0.74303
C         21.91927        46.70985         0.81800
C         23.19060        48.83356         0.39857
C         21.93981        48.11326         0.43371
C         23.16794        50.24871         0.08335
C         21.92205        50.92430        -0.14169
C         23.13871        53.03020        -0.56033
C         21.89885        52.32641        -0.43830
C         23.15232        54.47772        -0.86293
C         21.87458        55.17078        -1.23527
C         23.16148        56.75469        -2.70021
C         21.91476        56.27786        -2.21653
C         23.19151        57.90391        -3.62868
C         21.84087        58.40545        -4.22322
C         23.11024        59.50299        -6.03505
C         21.90142        59.11389        -5.50131
C         24.26488         4.09110        -2.23668
C         25.58976         6.06547        -1.59025
C         24.36933         5.43809        -1.73839
C         25.67347         7.40960        -0.90107
C         24.39086         8.16508        -1.15913
C         25.64593        10.38747        -1.19940
C         24.34547         9.64545        -1.18660
C         25.63146        11.85622        -0.92319
C         24.34136        12.52203        -0.64216
C         25.60167        14.58814         0.12437
C         24.34989        13.90399        -0.37208
C         25.62024        16.07144        -0.17361
C         24.43563        16.75958        -0.16682
C         25.67929        18.94115        -0.33109
C         24.42320        18.23381         0.10934
C         25.66254        20.33727        -0.44095
C         24.40681        21.04694        -0.33744
C         25.68386        23.21130        -0.76863
C         24.40426        22.48949        -0.39168
C         25.72615        24.63282        -0.25209
C         24.50463        25.42663        -0.50330
C         25.85821        27.45633        -0.97385
C         24.57109        26.73845        -0.83319
C         25.85634        29.00989        -1.04042
C         24.53908        29.68933        -0.81844
C         25.80604        31.94246        -0.56756
C         24.48377        31.22440        -0.85400
C         25.75405        33.31687         0.03105
C         24.53357        33.98128         0.12549
C         25.65466        35.94743         1.19753
C         24.44215        35.35919         0.57495
C         25.62397        37.42513         1.55670
C         24.34663        38.18453         1.30424
C         25.73771        40.36042         1.27738
C         24.41391        39.67230         1.17478
C         25.73921        41.84600         1.42879
C         24.46590        42.57469         1.47355
C         25.72181        44.75621         1.97094
C         24.43279        43.95655         1.63536
C         25.64316        46.15260         1.36648
C         24.47474        46.76610         0.98778
C         25.66803        48.88946         0.59560
C         24.43116        48.17910         0.66499
C         25.66586        50.39050         0.47814
C         24.37432        50.97571        -0.03773
C         25.64027        52.99702        -0.75174
C         24.36609        52.33914        -0.42969
C         25.67554        54.28574        -1.22861
C         24.44681        55.09299        -1.33106
C         25.61739        56.52343        -3.02177
C         24.39423        56.17461        -2.33213
C         25.57768        57.46473        -4.09836
C         24.40650        58.15888        -4.42353
C         24.34400        59.06035        -5.50763
C         26.91714         8.23990        -1.11568
C         28.11270        10.39330        -0.93543
C         26.91640         9.62437        -1.06253
C         28.11494        11.78862        -0.68581
C         26.89270        12.52591        -0.55517
C         28.11543        14.58725        -0.10622
C         26.88973        13.88299        -0.22578
C         28.11709        16.03981        -0.06065
C         26.89691        16.76513        -0.16725
C         28.15404        18.85296        -0.42103
C         26.90877        18.18541        -0.32087
C         28.17007        20.27969        -0.90265
C         26.91923        21.06692        -0.57259
C         28.22654        23.17573        -0.58683
C         26.96383        22.44070        -0.56585
C         28.26200        24.57935        -0.43370
C         27.02398        25.34851        -0.23014
C         28.27052        27.49246        -0.41488
C         27.07184        26.79716        -0.51257
C         28.28702        28.94921        -0.43781
C         27.10690        29.68083        -0.64015
C         28.33284        31.88216        -0.11513
C         27.09161        31.16649        -0.55410
C         28.19148        33.23141         0.48590
C         26.99853        33.94158         0.47086
C         28.13075        36.00976         1.33283
C         26.96817        35.30629         0.99903
C         28.09173        37.42716         1.68654
C         26.91262        38.14028         1.65579
C         28.22846        40.30008         1.53113
C         26.89538        39.63712         1.96054
C         28.23884        41.81514         1.68643
C         26.95366        42.55187         2.00656
C         28.28367        44.68457         1.59776
C         26.95489        43.97712         1.43168
C         28.25719        46.15539         1.49055
C         26.91139        46.90158         1.38388
C         28.14115        48.86400         0.40277
C         26.89715        48.24852         0.78587
C         28.10924        50.16724        -0.17409
C         26.89817        50.92784        -0.20874
C         28.08777        52.80940        -1.26733
C         26.87722        52.22274        -0.71458
C         28.12012        54.14353        -1.66671
C         26.95734        55.04696        -1.44912
C         26.83773        55.98025        -2.61782
C         29.33184        12.49546        -0.45110
C         30.65292        14.53044         0.12826
C         29.33841        13.85769        -0.18357
C         30.63051        16.04201         0.02892
C         29.35691        16.74510        -0.02196
C         30.61229        18.90658        -0.05559
C         29.35047        18.15271        -0.20043
C         30.63782        20.32115        -0.47091
C         29.46524        21.01579        -0.65368
C         30.67567        23.17516        -0.56659
C         29.45896        22.46289        -0.68175
C         30.67797        24.55967        -0.34112
C         29.47502        25.29480        -0.30607
C         30.68019        27.43503         0.06663
C         29.48996        26.74894        -0.17158
C         30.71415        28.87013         0.06895
C         29.55074        29.59949        -0.14027
C         30.78082        31.66959         0.65644
C         29.59663        31.07968        -0.01135
C         30.68964        33.09261         1.09794
C         29.40497        33.86269         1.04243
C         30.61202        36.01960         1.32901
C         29.42294        35.34598         1.19943
C         30.66474        37.41731         1.79615
C         29.36969        38.11992         2.05740
C         30.70452        40.30913         1.83528
C         29.40439        39.63954         2.25181
C         30.68215        41.78362         1.91062
C         29.41307        42.50794         1.66690
C         30.74948        44.65833         1.32637
C         29.47075        43.98051         1.59629
C         30.66424        46.04384         0.87629
C         29.45938        46.78988         0.92253
C         30.55231        48.71836        -0.14111
C         29.37281        48.12255         0.42794
C         30.50801        49.99396        -0.71303
C         29.30315        50.73599        -0.74532
C         29.26568        52.02119        -1.31226
C         31.83046        16.69744        -0.01742
C         33.19526        18.88738        -0.16838
C         31.92662        18.16252         0.06829
C         33.22552        20.25612        -0.35114
C         31.95053        20.96824        -0.63830
C         33.23402        23.18788        -0.41983
C         31.96510        22.47343        -0.69205
C         33.21942        24.53311        -0.20080
C         31.93397        25.20916         0.05187
C         33.20784        27.36879         0.47338
C         31.91314        26.66989         0.35306
C         33.05071        28.73386         1.09038
C         32.06858        29.56450         0.20634
C         33.21520        31.65935         1.08891
C         31.93958        30.97324         0.74478
C         33.25437        33.14100         1.16906
C         31.96022        33.88033         0.97438
C         33.16536        36.09098         1.37465
C         31.91564        35.36367         1.09459
C         33.14595        37.49214         1.47201
C         31.91258        38.18640         1.59618
C         33.16384        40.33361         1.48384
C         31.89353        39.61073         1.62217
C         33.16791        41.67829         1.77613
C         31.97533        42.55223         1.84078
C         33.16190        44.53183         0.68410
C         31.97861        43.95602         1.31168
C         33.16905        46.01970         0.38386
C         31.83077        46.69305         0.36131
C         31.76980        47.97722        -0.13219
C         34.44053        21.02261        -0.35801
C         35.68810        23.16452        -0.18714
C         34.48476        22.43058        -0.38420
C         35.72598        24.58095        -0.09398
C         34.46318        25.36329        -0.38656
C         35.65061        27.43886         0.41358
C         34.40996        26.73531         0.26065
C         35.65996        28.79643         0.84465
C         34.40270        29.41922         1.33222
C         35.70009        31.65227         1.44010
C         34.42446        30.90263         1.52649
C         35.73384        33.06180         2.02763
C         34.41199        33.84457         1.81975
C         35.73200        36.05807         1.61815
C         34.39594        35.33982         1.71609
C         35.55134        37.39767         0.90267
C         34.38299        38.22941         1.27420
C         35.58888        40.26475         0.56106
C         34.40141        39.61116         1.15781
C         35.52559        41.64877         0.07121
C         34.80167        42.61436         0.70951
C         34.33060        43.90610         0.27990
C         36.90047        25.30429         0.09880
C         38.07484        27.49504         0.11666
C         36.91069        26.74884         0.18249
C         37.97851        28.98866        -0.05603
C         36.81623        29.57968         0.71119
C         38.17553        31.61574         1.26471
C         36.84780        30.96618         1.10700
C         38.21541        33.14757         1.57602
C         36.94669        33.82853         1.54434
C         38.08853        35.93726         0.70656
C         36.78293        35.15931         0.85586
C         38.04418        37.32544         0.46435
C         36.78961        38.07597         0.39136
C         36.71839        39.53545         0.25591
C         39.27033        29.74828         0.08391
C         40.55314        31.81393         0.44910
C         39.34716        31.00336         0.59860
C         40.60501        33.13384         0.71474
C         39.51425        33.92512         1.40678
C         39.31291        35.28648         0.80520
O          9.31182        35.31722        -0.93480
O         14.88538        44.16771         2.66485
O         25.44241        14.55656         1.55545
O         13.46463        36.86590         1.95763
O         25.75456        44.90332         3.34018
O         20.79049        10.96395         1.16369
O         20.24864        25.10923        -2.47606
O         15.92850        20.49603        -1.86458
O         31.22734        18.70845         1.26751
O         17.88418        26.64345         0.93953
O         27.66925        46.84148         2.63809
O         17.21476        30.45105         1.40678
O         19.42948        46.94715        -0.74706
O         20.09424        33.51712         1.12045
O         23.46767        41.45646        -0.41751
O         10.45963        27.07303         2.36307
O         18.05571        23.99270        -2.76211
O         19.40247        43.06286         2.97677
O         21.07516        55.38327        -0.01111
O         14.64788        22.63787        -1.76969
O         14.16558        29.01797         1.96632
O         22.53059        59.08938        -3.12222
O         31.96926        34.68221        -0.24652
O         34.12685        34.63233         3.01838
O         34.40869        30.00504         2.68727
O         31.79662        25.68980         1.45802
O         23.99421        39.06179         2.43246
O         29.31412        31.84899        -1.23485
O         22.12364        42.94472         2.83027
O         18.70638        31.32284        -1.74754
O         24.25216         8.86343        -2.44300
O         25.44177        36.39673         2.58030
O         19.05232        35.89323        -1.69545
O         16.44016        40.51443        -0.93570
O         29.91002        33.23434         2.32181
O         26.62226        31.84910        -1.78704
O         19.43138        17.31202        -2.05804
O         14.96773        46.84028         2.38383
O         14.12992        31.58463         1.86203
O         25.98164        28.18938        -2.23567
O         21.62930        31.49430        -1.70024
O         22.77030        27.26889        -2.45855
O         35.78211        37.38961        -0.53916
O         30.08035        37.49568         3.17942
O         15.95652        41.86815         2.47716
O         25.69485        11.34037        -2.31588
O         31.30050        42.36729         3.13542
O         26.04526        41.17795         0.11938
O         26.32978        24.90661         1.04263
O         33.66834        32.48462        -0.06913
O         23.92288        55.35555         0.03050
O         34.38692        42.29653         2.02389
O         32.04212        21.68178        -1.93188
O         21.63498        21.90742         0.94735
O         38.37966        32.10877         2.61036
O         32.67885        29.64207        -1.10190
H         32.20540        30.31799        -1.63213
O         36.23205        36.34282         2.93178
H         35.75807        35.76361         3.56988
O         26.76717        43.90818        -0.00782
H         27.28645        43.15316        -0.35833
O         25.59361        23.38992        -2.22492
H         25.54511        22.50141        -2.63748
O         32.37449        28.55081         2.34885
H         32.95918        28.90578         3.05924
O         14.75277        34.02366         2.01248
H         14.68921        33.11223         2.39265
O         16.89461        43.84036        -0.33416
H         17.19144        44.70665        -0.68812
O         31.70939        13.98427        -0.67141
H         31.49790        14.14797        -1.61315
O         18.12987        40.88182         2.86889
H         18.19516        41.57434         3.56524
O         25.75422        50.85777         1.87396
H         25.75903        51.83899         1.85951
O          9.68996        30.86703         2.56398
H          9.86218        31.76644         2.92578
O         37.61824        29.19617        -1.48157
H         36.81895        28.65473        -1.66283
O         35.88991        32.85961         3.46016
H         35.34223        33.53531         3.92261
O         14.70037        14.21125        -0.53793
H         14.98373        14.50243        -1.42901
O         36.25962        34.83284        -0.45098
H         36.07937        35.68915        -0.91849
O         21.74336        39.78313        -1.15203
H         22.17993        40.60920        -1.46817
O         33.88568        46.31413        -0.82358
H         33.32607        46.05553        -1.58410
O         24.12927        31.55808        -2.20366
H         24.94435        31.47756        -2.74971
O         25.66472         7.13370         0.54646
H         26.42128         6.54287         0.74550
O         22.15368        29.34293         1.24704
H         22.10222        28.38088         1.43196
O         22.89563        25.00859         1.19440
H         23.59447        24.58756         1.74013
O         23.15328        15.95977         1.63936
H         23.97316        15.38597         1.84240
O         15.44434        31.50933        -1.56253
H         14.71191        32.13271        -1.81589
O         20.67792        45.28949         3.27836
H         20.61847        44.50268         3.86780
O         28.44185        40.00099         0.12824
H         27.70828        40.42769        -0.37638
O         23.71854        31.44233         1.39394
H         22.92548        31.50069         1.96670
O         13.30808        33.16700        -1.31490
H         12.35262        33.09322        -1.59205
O         23.30265        45.56033        -0.68190
H         23.29247        46.38504        -1.21369
O         27.19625        55.83849        -0.22382
H         26.32591        56.15218         0.10553
O         29.27303        39.89929         3.66912
H         29.81190        39.21538         4.13203
O         24.45930        18.32499         1.58599
H         23.92352        17.55822         1.92919
O         26.86679        42.56663         3.43493
H         26.46258        43.44179         3.72235
O         34.49747        25.64903        -1.83146
H         34.60452        24.79362        -2.30028
O         10.56167        33.12131        -1.13334
H         10.05039        33.96299        -1.37773
O         22.34143        35.77146        -1.71337
H         21.49391        35.67282        -2.19976
O         17.04219        54.54712        -2.23532
H         17.26141        54.00019        -3.01679
O         21.96430         7.87517         1.04904
H         21.95003         6.90582         1.19661
O          9.46031        29.75707        -0.91706
H          9.23500        28.89262        -1.31834
O         26.64749        39.78816         3.36215
H         27.51356        39.87481         3.83561
O         13.14983        40.58768        -1.41224
H         12.19811        40.67467        -1.67572
O         40.01697        34.16831         2.75906
H         39.81878        33.35607         3.27956
O          9.94426        33.91250         2.41626
H          9.24682        34.41253         2.89082
O         16.56432        35.39130        -2.00415
H         17.40949        35.35044        -2.50974
O         10.40754        40.36671        -1.30834
H         10.15845        39.45447        -1.57581
O         28.11059        20.15230        -2.38043
H         28.36227        21.02145        -2.76076
H          4.90128        31.19135         0.94208
H          4.88942        33.65558         1.01198
H          7.39568        26.93198         1.31184
H          6.14655        29.06332         1.09152
H          6.12010        35.78724         1.26891
H          7.37679        37.96709         1.38991
H         10.09653        22.67228         1.64040
H          8.73123        24.64993         1.20639
H          8.49731        40.09287         0.84098
H          9.73368        42.34571         0.62752
H         12.82794        18.44272         1.84109
H         11.47079        20.64525         1.89498
H         10.92961        44.48710         0.71192
H         12.21909        46.59540         0.53196
H         15.33413        14.29175         1.41468
H         13.96600        16.29520         1.44130
H         13.57464        48.62535        -0.02869
H         14.80141        50.66974        -0.37591
H         17.25982         9.82291        -0.33364
H         16.05477        11.95705         0.20334
H         16.02778        52.72276        -0.92594
H         17.72858        54.93434        -0.34009
H         19.67514         5.64783        -1.51199
H         18.46882         7.72771        -0.97455
H         18.50691        56.40968        -2.93275
H         19.72116        57.81674        -4.39638
H         23.00227         2.41605        -2.68178
H         20.88375         3.55942        -2.07507
H         23.12191        60.09666        -6.96043
H         20.96380        59.31599        -6.03914
H         25.18235         3.56775        -2.54289
H         26.51621         5.52808        -1.84692
H         26.50272        57.66773        -4.65786
H         25.27327        59.31608        -6.03660
H         27.88461         7.71303        -1.05812
H         29.07779         9.86286        -0.94137
H         29.05912        54.57180        -2.04811
H         27.75509        56.28801        -3.14220
H         30.28894        11.95500        -0.49777
H         30.90867        14.27351         1.19506
H         31.42136        50.42826        -1.14460
H         30.18581        52.45475        -1.73035
H         32.75722        16.10658        -0.08151
H         34.13797        18.32844        -0.06276
H         33.76520        46.49345         1.21595
H         32.68071        48.44146        -0.53706
H         35.38728        20.47534        -0.22824
H         36.62708        22.60612        -0.04790
H         36.00047        41.86588        -0.89672
H         34.98616        44.50129        -0.37932
H         37.86355        24.77393         0.15947
H         39.04175        26.99747        -0.04920
H         38.99122        37.88359         0.41301
H         37.59368        40.05725        -0.15958
H         40.15011        29.32609        -0.42697
H         41.42903        31.31718         0.00354
H         41.54299        33.67925         0.53024
H         40.22889        35.86945         0.61796
