         324
 CSIRO Nanostructure Databank - Neutral Graphene Oxide Data Set
C          1.11131         3.14405         0.75292
C          0.00873         3.97921         0.67076
C          1.01018         6.29914         0.45493
C         -0.06147         5.40125         0.54383
C          0.94451         7.64934        -0.09836
C         -0.26131         8.34404        -0.19025
C          0.84743        10.49239        -0.55200
C         -0.28850         9.76220        -0.33838
C          0.80714        11.98831        -0.26411
C          0.17459        12.84627        -1.32497
C          1.19392        14.76294        -0.19582
C          0.29918        14.19059        -1.17236
C          1.04029        16.16140         0.18353
C         -0.07293        16.99919        -0.28404
C          1.15915        19.09313         0.16083
C         -0.04223        18.35133        -0.17419
C          1.18658        20.52452         0.13355
C         -0.01260        21.31346        -0.08354
C          1.16803        23.47478         0.18563
C         -0.02380        22.67018        -0.13235
C          1.27602        24.91816        -0.13218
C          0.11727        25.67243        -0.54818
C          1.34018        27.80328        -0.42918
C          0.15316        27.01577        -0.77190
C          1.49971        29.19992        -0.88580
C          3.68592         3.20299         0.68389
C          2.43087         3.63656         1.02790
C          3.47260         6.33514         0.21267
C          2.32128         5.85069         0.80505
C          3.41707         7.66059        -0.35244
C          2.17736         8.31706        -0.44003
C          3.31101        10.43091        -0.30949
C          2.12241         9.76726        -0.94110
C          3.15245        11.60037         0.39598
C          2.14474        12.57537         0.16180
C          3.56736        14.72275         0.57351
C          2.31277        13.99127         0.28327
C          3.59527        16.13975         0.54866
C          2.34699        16.91776         0.58079
C          3.60958        19.04953         0.37165
C          2.36253        18.37428         0.37950
C          3.63161        20.45700         0.24960
C          2.43347        21.19599         0.21409
C          3.72667        23.40352         0.05098
C          2.47717        22.67636         0.32788
C          3.75190        24.77479        -0.05490
C          2.52611        25.53972        -0.08668
C          3.91876        27.68304        -0.32132
C          2.60949        27.01201        -0.12316
C          3.94816        29.12995        -0.53511
C          2.69728        29.82401        -0.82708
C          6.08018         3.67818         0.99815
C          4.82670         4.12787         0.69048
C          5.95144         6.20477        -0.39739
C          4.68936         5.49950         0.08081
C          5.91198         7.68239        -0.59565
C          4.69061         8.33934        -0.58024
C          5.96570        10.54954        -0.56360
C          4.64170         9.81921        -0.60954
C          6.11153        11.96321        -0.13465
C          5.07543        12.64137         0.47155
C          6.05236        14.77851         0.28714
C          4.88735        14.06672         0.47415
C          6.10167        16.16319         0.82252
C          4.82022        16.90522         0.55707
C          6.10695        19.01188         0.68972
C          4.84297        18.29699         0.51108
C          6.14543        20.44985         0.59672
C          4.93625        21.14000         0.10659
C          6.24661        23.34031         0.21915
C          4.98263        22.62610        -0.06729
C          6.27851        24.73065         0.06915
C          5.05413        25.45236        -0.45705
C          6.39527        27.62996        -0.30423
C          5.07344        26.95673        -0.24500
C          6.44747        29.13108        -0.57759
C          5.13872        29.80703        -0.63594
C          8.51384         3.94669         1.24330
C          7.29879         4.42354         0.72429
C          8.45194         6.10433        -0.80135
C          7.24872         5.61322        -0.03467
C          8.42336         7.62414        -1.08652
C          7.17463         8.40171        -0.79035
C          8.43662        10.58969        -1.04033
C          7.22120         9.77895        -0.71692
C          8.51163        12.03708        -0.70127
C          7.31871        12.68616        -0.42250
C          8.57445        14.89714        -0.29494
C          7.26440        14.14438        -0.26248
C          8.57973        16.26417         0.30159
C          7.38405        16.89578         0.55894
C          8.52681        18.97314         1.24737
C          7.30738        18.30755         0.81699
C          8.50454        20.51265         1.33242
C          7.31090        21.18316         0.81407
C          8.61831        23.30662         0.86674
C          7.40025        22.60884         0.60399
C          8.62673        24.71048         0.78643
C          7.48716        25.41996         0.32241
C          8.58665        27.49465         0.90437
C          7.51967        26.85989         0.30234
C          8.73772        29.63553         0.32162
C          7.69261        29.97270        -0.50325
C         10.98498         4.39955         1.69674
C          9.80077         4.51158         0.85263
C         11.02155         6.46024        -0.32503
C          9.79826         5.61952        -0.22290
C         11.00752         7.70487        -0.88304
C          9.72685         8.37218        -1.25647
C         11.00595        10.64625        -1.19178
C          9.73185         9.88338        -1.30989
C         11.02617        12.01870        -1.02460
C          9.77565        12.75843        -0.75885
C         11.02321        14.95538        -0.91032
C          9.82064        14.12415        -0.48330
C         11.10509        16.35620        -0.22063
C          9.86349        17.02496         0.34161
C         10.91531        19.00612         1.58490
C          9.82366        18.29426         1.14669
C         10.96446        20.46086         1.62474
C          9.79735        21.19103         1.31172
C         11.12368        23.23095         1.13825
C          9.86114        22.58692         1.12670
C         11.14820        24.68536         1.31708
C          9.83344        25.43890         1.21829
C         11.08694        27.60718         1.08949
C          9.88179        26.89950         1.06706
C         11.15110        29.06841         0.84951
C         10.13397        29.91355         0.30752
C         13.39808         4.60650         1.99188
C         12.22015         4.88626         1.27577
C         13.60204         6.43351        -0.24213
C         12.28841         5.77803         0.08023
C         13.59203         7.74753        -0.98235
C         12.26320         8.40036        -1.28484
C         13.54957        10.63147        -1.55109
C         12.23810         9.88842        -1.52298
C         13.53292        12.09530        -1.32358
C         12.30002        12.76094        -1.08628
C         13.52182        14.87901        -1.15012
C         12.32339        14.17019        -0.93246
C         13.49996        16.36569        -1.00572
C         12.49306        16.89791        -0.04170
C         13.98836        18.82525         0.48654
C         12.83324        17.97534         0.73289
C         14.11791        20.12901         1.04955
C         12.20110        21.16105         1.64039
C         13.64422        23.21465         1.05994
C         12.35071        22.51460         1.25786
C         13.61775        24.66609         1.01875
C         12.39745        25.42596         1.16090
C         13.58713        27.54927         1.13949
C         12.34459        26.84784         1.14419
C         13.60025        28.98466         1.24168
C         12.39581        29.69586         1.03215
C         15.80740         4.68324         2.34269
C         14.68796         5.08084         1.61233
C         16.00956         6.67711         0.26011
C         14.81308         6.07037         0.54478
C         16.10777         7.78766        -0.77368
C         14.82351         8.57775        -0.94242
C         16.05001        10.67776        -1.50270
C         14.82479         9.90823        -1.29012
C         16.00273        12.04842        -1.71948
C         14.75262        12.79894        -1.51064
C         15.92870        15.01440        -1.87184
C         14.72599        14.21881        -1.48340
C         16.02477        16.43999        -1.51334
C         14.78820        17.13093        -1.14412
C         16.12215        19.17833        -0.61084
C         14.93873        18.41499        -0.44745
C         16.15686        20.52502        -0.13461
C         15.03337        21.07765         0.58451
C         16.07513        23.30169         0.56696
C         14.89282        22.53724         0.81278
C         16.04757        24.70771         0.60116
C         14.83024        25.40328         0.84162
C         16.01842        27.59815         1.01699
C         14.81747        26.84793         0.98928
C         16.04021        28.98858         1.35040
C         14.80729        29.67332         1.44552
C         18.32921         4.79251         2.73557
C         17.15325         4.97760         1.88363
C         18.51683         6.84316         0.72423
C         17.26499         6.09585         0.76487
C         18.53294         8.18031         0.08185
C         17.28340         8.71252        -0.52283
C         18.65175        10.66009        -1.49204
C         17.33553         9.92763        -1.40821
C         18.60323        12.10512        -1.89882
C         17.25103        12.78514        -2.06000
C         18.49784        15.04989        -1.95162
C         17.23363        14.29053        -2.10927
C         18.47026        16.46382        -1.83802
C         17.22599        17.14833        -1.55564
C         18.49654        19.26632        -1.18428
C         17.27370        18.54994        -1.17302
C         18.54272        20.60823        -0.66881
C         17.38626        21.23721        -0.20601
C         18.53969        23.43159        -0.15620
C         17.43093        22.59477         0.46040
C         18.58394        24.86109         0.18089
C         17.26329        25.49973         0.28926
C         18.54641        27.66891         0.78133
C         17.26352        26.99097         0.55419
C         18.52208        29.01815         1.24484
C         17.27915        29.66512         1.47708
C         19.51582         5.39016         2.43752
C         20.85965         7.20787         1.34779
C         19.62391         6.43529         1.44518
C         20.99422         8.26423         0.52254
C         19.88519         8.69118        -0.41050
C         20.83559        11.04414        -0.42888
C         19.82311        10.17812        -0.71477
C         20.81639        12.41501        -0.85469
C         19.77707        12.94958        -1.57347
C         20.93979        15.12120        -1.95417
C         19.73837        14.37424        -1.87219
C         20.91576        16.49822        -2.01785
C         19.69195        17.20780        -1.86763
C         20.87286        19.41973        -1.84154
C         19.68812        18.62059        -1.64497
C         20.96041        20.68292        -1.36394
C         19.90578        21.24586        -0.44808
C         21.05303        23.55936        -0.38733
C         19.82670        22.75947        -0.53764
C         21.00790        24.87950        -0.08503
C         19.76085        25.58536         0.15387
C         20.96683        27.73554         0.68844
C         19.76743        27.00935         0.51730
C         20.94999        29.06566         1.12362
C         19.75226        29.70688         1.41081
O         10.09476         4.27091        -0.58866
O         18.19043         9.77095        -2.57711
O          8.31783        19.68187         2.51606
O          8.91060        10.36431        -2.41800
O          8.37883        28.77713         1.38404
O          5.18158        10.43632        -1.84321
O         12.99515         7.66444        -2.31390
O         13.73865        17.14189        -2.21381
O         18.87087        23.18573        -1.56144
O          1.39938        16.43724         1.57588
O          2.42553         4.84617         1.75994
O         13.10919         5.30391        -1.03375
O          4.20013        11.91894         1.26928
O         10.36446        25.02834         2.52734
O         10.33857        17.33171        -1.03946
O          9.01235         7.83911        -2.41453
O          5.10914         5.44536        -1.33536
O          7.70159        14.86254        -1.49131
O         18.01231        12.28196        -3.20955
O         12.85218        10.26361        -2.79308
O          5.07936        21.74656        -1.25185
O         13.30367        20.46810         2.13577
O         17.39223         4.67948         0.47659
O         17.62579         9.08409         0.84982
O         16.41568        14.74869        -3.23547
O         17.07651        26.44814        -0.81725
O         12.09228        18.31259         1.86455
O          6.65972        28.13551        -1.66885
O          1.74484        23.15881         1.49811
O          1.81434        27.62114         0.94987
O          8.31649         5.43598        -2.07897
H          8.74690         6.01214        -2.75449
O          2.22325         9.78069        -2.38909
H          3.17031         9.68028        -2.62989
O          5.11100        25.31206        -1.91787
H          5.24057        24.36085        -2.12287
O         20.13495         8.02549        -1.67726
H         19.48432         8.38083        -2.33257
O          6.14212        15.97583         2.29857
H          5.24662        15.69036         2.58338
O         16.39167         7.16234        -2.05023
H         15.59569         6.66827        -2.34256
O         20.32160        20.93552         0.91736
H         20.43177        19.96387         0.98184
O         17.85016        22.39335         1.84619
H         17.20144        21.79638         2.27486
O         -0.06460        12.11285         0.91800
H         -0.09900        13.06596         1.15115
O         10.77580        15.19846        -2.31625
H         10.19954        15.99650        -2.38124
H          0.96938         2.07031         0.55960
H         -0.95796         3.47228         0.51810
H         -1.06063         5.78626         0.28575
H         -1.20128         7.83389         0.06400
H         -1.23113        10.28275        -0.11427
H         -0.48430        12.40931        -2.08715
H         -0.26956        14.87560        -1.81888
H         -0.97454        16.50988        -0.67937
H         -0.93795        18.91155        -0.47419
H         -0.95757        20.78748        -0.27610
H         -0.95948        23.18288        -0.39750
H         -0.81423        25.12716        -0.75580
H         -0.71589        27.52845        -1.21008
H          0.60366        29.74461        -1.21931
H          3.84941         2.18954         0.28785
H          2.77270        30.88354        -1.11540
H          6.20137         2.66521         1.40947
H          5.12496        30.89982        -0.77031
H          8.50237         3.12783         1.97731
H          7.84282        30.68561        -1.32800
H         10.91161         3.83805         2.63954
H         10.47654        30.85540        -0.14921
H         13.33428         3.91961         2.84889
H         12.45239        30.79100         0.94459
H         15.67325         4.11146         3.27317
H         14.79718        30.76336         1.58632
H         18.23559         4.15362         3.62620
H         17.27624        30.73067         1.74910
H         20.39668         5.19386         3.06678
H         21.70582         6.89209         1.97690
H         21.96817         8.76868         0.44846
H         21.71108        10.70749         0.14206
H         21.66631        13.05004        -0.56949
H         21.90220        14.59305        -1.99047
H         21.86369        17.04702        -2.09308
H         21.70265        19.00726        -2.43319
H         21.86594        21.27695        -1.55262
H         22.02649        23.05221        -0.45571
H         21.95547        25.42478         0.01858
H         21.93753        27.26505         0.48616
H         21.90049        29.60370         1.24486
H         19.74551        30.74965         1.75782
