         621
 CSIRO Nanostructure Databank - Neutral Graphene Oxide Data Set
C          5.76072        31.83385         2.06855
C          5.76755        33.16410         2.31397
C          8.24747        27.58910         1.03488
C          8.21613        29.00796         1.24919
C          7.01562        29.66289         1.48261
C          8.25481        31.74732         2.05110
C          6.97832        31.16497         1.47675
C          8.26198        33.22818         2.29666
C          6.98291        33.96366         2.18388
C          8.23650        36.05328         1.84732
C          6.99459        35.32014         2.00882
C          8.25027        37.42665         1.66144
C         10.63872        23.36628         0.15359
C         10.65053        24.74873         0.38284
C          9.43768        25.47984         0.58263
C         10.68362        27.63227         0.54299
C          9.41856        26.87866         0.73659
C         10.72288        29.10906         0.84271
C          9.47307        29.76282         1.27258
C         10.76560        31.80829         1.79277
C          9.52000        31.07618         1.68227
C         10.76062        33.19640         1.96504
C          9.52358        33.94923         2.06055
C         10.72541        36.00389         1.36061
C          9.48268        35.31013         1.84144
C         10.72064        37.48845         1.59909
C          9.48142        38.18265         1.57678
C         10.68854        40.33239         1.41143
C          9.47578        39.58770         1.48085
C         10.71461        41.71746         1.13910
C         13.20437        19.00408        -0.42052
C         13.13308        20.43403        -0.31820
C         11.94501        21.09514        -0.05500
C         13.16018        23.30724         0.27503
C         11.86160        22.54932         0.23095
C         13.13962        24.78111         0.07017
C         11.90417        25.50168         0.40208
C         13.19833        27.61446         0.65593
C         11.95256        26.88063         0.53472
C         13.19713        29.01669         1.03011
C         12.01923        29.74006         1.19268
C         13.22921        31.78731         1.92831
C         12.02853        31.11075         1.64066
C         13.26975        33.20413         2.11353
C         12.01450        33.93052         1.95855
C         13.24040        36.04749         1.69546
C         11.98694        35.29890         1.78501
C         13.16826        37.50827         1.83156
C         11.94553        38.19315         1.71842
C         13.13712        40.35834         1.59468
C         11.93181        39.64394         1.62563
C         13.17401        41.71661         1.18574
C         11.93466        42.41120         0.95916
C         13.17174        44.40529         0.22618
C         11.96543        43.77497         0.54132
C         13.24062        45.81157        -0.15360
C         15.81026        14.81320        -0.84419
C         15.73549        16.17999        -0.54542
C         14.49797        16.88768        -0.59183
C         15.69202        19.03183        -0.30883
C         14.41552        18.28966        -0.46739
C         15.69895        20.52267        -0.39495
C         14.37945        21.23197        -0.68318
C         15.72721        23.33538        -0.11535
C         14.44558        22.58091         0.00271
C         15.73722        24.80038         0.07832
C         14.45192        25.53809         0.09207
C         15.65434        27.54114         0.95658
C         14.42265        26.93792         0.52493
C         15.68686        28.84619         1.38484
C         14.49829        29.69423         1.24909
C         15.73190        31.73794         2.43328
C         14.53697        31.13147         1.76522
C         15.74410        33.15130         2.59205
C         14.50698        33.86270         2.27114
C         15.73611        36.11513         2.33930
C         14.54416        35.31236         2.00400
C         15.69105        37.50316         2.22409
C         14.36272        38.22224         2.38242
C         15.68900        40.35226         1.65583
C         14.39271        39.69744         2.01149
C         15.68288        41.65379         0.97974
C         14.41772        42.36644         0.88122
C         15.63018        44.23904        -0.17762
C         14.38578        43.66461         0.35357
C         15.64625        45.66160        -0.64439
C         14.40158        46.44245        -0.49263
C         15.75285        48.48811        -1.23716
C         14.44834        47.94806        -0.67330
C         15.81325        49.85238        -1.52209
C         18.39108        10.76775        -2.17589
C         18.30516        11.97552        -1.34685
C         17.08866        12.79999        -1.41419
C         18.27545        14.69465        -0.34709
C         17.03523        14.06855        -0.88604
C         18.23895        16.17502        -0.11094
C         16.97960        16.92621        -0.36305
C         18.20917        19.05598        -0.64395
C         16.96239        18.29146        -0.41426
C         18.21864        20.53705        -0.89743
C         16.95450        21.29039        -0.69764
C         18.17948        23.47221        -0.77545
C         16.94983        22.64955        -0.60448
C         18.19499        24.89163        -0.24603
C         16.91320        25.46023         0.23273
C         18.21358        27.42459         1.21528
C         16.90445        26.74634         0.95308
C         18.18500        28.79485         1.72966
C         16.87877        29.38976         2.05700
C         18.16865        31.21360         3.17772
C         16.84664        30.78726         2.67467
C         18.09847        33.45338         3.51463
C         16.91679        33.96964         2.92768
C         18.12487        36.15975         2.80225
C         16.96375        35.41456         2.65070
C         18.15290        37.66581         2.72557
C         16.90456        38.24852         2.12276
C         18.11626        40.12515         1.09809
C         16.92802        39.56039         1.63255
C         18.14938        41.44899         0.62293
C         16.90188        42.19073         0.59718
C         18.19990        44.26642        -0.16464
C         16.92038        43.62035         0.23984
C         18.16118        45.59927        -0.81197
C         16.95005        46.34001        -0.84839
C         18.15142        48.21721        -1.88867
C         16.92312        47.67343        -1.29522
C         18.18064        49.69692        -2.26472
C         17.00977        50.52816        -1.90519
C         18.32702        52.60126        -2.21701
C         17.12156        51.92189        -1.87026
C         18.45868        53.98960        -2.23642
C         20.81509         6.98065        -4.12432
C         20.78268         8.26719        -3.55536
C         19.59955         8.87973        -3.14279
C         20.86547        10.71791        -2.01730
C         19.58614        10.13833        -2.45257
C         20.89182        11.97132        -1.27168
C         19.60942        12.59946        -0.85101
C         20.79182        14.73885        -0.37923
C         19.60854        14.05280        -0.53925
C         20.82988        16.19242        -0.22029
C         19.53896        16.92559        -0.04652
C         20.73762        19.14041        -0.61948
C         19.49200        18.40623        -0.24364
C         20.68830        20.62757        -0.53173
C         19.50780        21.27719        -0.72768
C         20.75840        23.53854        -0.69927
C         19.49164        22.75274        -0.90006
C         20.68247        24.95361        -0.26574
C         19.48653        25.57445         0.06606
C         20.65806        27.59689         0.95308
C         19.47345        26.87733         0.68764
C         20.63711        28.80901         1.69781
C         19.39557        29.40512         2.05856
C         20.64461        31.16812         3.31247
C         19.37606        30.61283         2.87804
C         20.57964        33.38365         3.63660
C         19.35286        34.08707         3.46532
C         20.59290        36.04251         2.53634
C         19.39930        35.57499         3.31191
C         20.62756        37.30010         1.97064
C         19.48655        38.30264         2.15329
C         20.53090        39.80028         0.36802
C         19.23206        39.13577         0.86393
C         20.60339        41.27237         0.09359
C         19.38244        42.05575         0.14181
C         20.60553        44.05424        -0.67590
C         19.41235        43.41988        -0.25735
C         20.61719        45.41639        -1.08695
C         19.40030        46.18050        -1.17759
C         20.64569        48.19241        -1.87847
C         19.43077        47.52646        -1.65988
C         20.66663        49.61278        -2.16099
C         19.50207        50.33156        -2.31554
C         20.79500        52.46747        -2.89794
C         19.49374        51.78429        -2.61055
C         20.89070        53.93094        -2.74621
C         19.70169        54.65711        -2.49441
C         20.98718        56.75485        -2.58489
C         19.79039        56.08466        -2.41744
C         21.00299        58.26042        -2.44483
C         23.26564         4.39563        -5.29919
C         22.05346         5.04610        -5.03023
C         23.29465         6.97436        -4.14460
C         22.03589         6.33451        -4.45654
C         23.31664         8.25230        -3.56144
C         22.05326         9.08183        -3.51520
C         23.32988        10.60584        -1.93828
C         22.03978        10.12011        -2.42056
C         23.35868        11.96537        -1.22732
C         22.06727        12.64198        -1.02866
C         23.37918        14.72756        -0.37320
C         22.07582        13.92011        -0.21298
C         23.33287        16.25596        -0.31425
C         22.00505        16.91160        -0.28253
C         23.28265        19.12952        -0.44040
C         22.01304        18.38106        -0.52904
C         23.26055        20.58422        -0.17423
C         21.94513        21.35320        -0.20868
C         23.20556        23.49569        -0.24048
C         22.01693        22.81986        -0.36661
C         23.27087        24.99016        -0.52719
C         21.94748        25.71529        -0.24898
C         23.21570        27.76707         0.72037
C         21.92301        27.09464         0.36488
C         23.16640        28.98473         1.58747
C         21.90887        29.33274         2.34222
C         23.07750        31.62616         2.89086
C         21.87595        30.79402         2.79724
C         23.01711        33.04828         3.04705
C         21.81567        33.84270         3.15285
C         23.10925        36.02746         2.64762
C         21.83783        35.30774         2.87386
C         23.08935        37.26627         1.83374
C         21.85135        37.83000         1.43276
C         23.12385        39.75356         0.32788
C         21.82085        39.07248         0.62759
C         23.12167        41.19214        -0.04645
C         21.83886        41.87529        -0.17515
C         23.14803        43.93599        -1.10166
C         21.88093        43.32560        -0.49418
C         23.00232        45.26040        -1.76969
C         21.83557        46.03862        -1.53681
C         23.11842        48.06850        -2.12276
C         21.87403        47.43387        -1.84701
C         23.22519        49.53827        -1.95480
C         21.94855        50.39669        -1.87722
C         23.33009        52.37752        -2.84736
C         22.04123        51.64368        -2.77761
C         23.35772        53.84803        -3.01388
C         22.14450        54.58825        -2.90074
C         23.41557        56.71134        -3.08368
C         22.19799        56.03196        -2.85636
C         23.48608        58.13309        -3.04239
C         22.32008        58.91271        -2.79426
C         23.62080        60.95456        -3.08988
C         22.39453        60.30070        -2.83937
C         24.48333         4.99379        -4.99877
C         25.75990         6.92242        -4.11876
C         24.53171         6.28890        -4.41007
C         25.79631         8.20020        -3.52960
C         24.55113         8.85180        -3.21877
C         25.77633        10.79253        -2.33175
C         24.57500        10.10309        -2.53814
C         25.76338        12.13953        -1.83331
C         24.60333        12.75129        -1.35461
C         25.76682        14.91294        -1.06562
C         24.58424        14.13519        -0.98127
C         25.74879        16.34260        -0.86916
C         24.52246        17.02947        -0.71900
C         25.69436        19.26072        -0.90381
C         24.46717        18.46556        -0.67106
C         25.71780        20.70354        -0.58339
C         24.50369        21.36869        -0.31502
C         25.69789        23.50168        -0.20840
C         24.46932        22.77955        -0.19595
C         25.70619        24.93017         0.08321
C         24.48406        25.64905         0.12711
C         25.67849        27.55949         1.05617
C         24.47378        26.97726         0.59405
C         25.67882        28.86974         1.76914
C         24.41526        29.54407         2.19469
C         25.57198        31.67673         2.62564
C         24.37010        30.99935         2.57734
C         25.64322        33.09886         2.98492
C         24.29587        33.82860         3.10295
C         25.55803        35.93780         2.62675
C         24.36623        35.25827         2.74538
C         25.50252        37.40123         2.34181
C         24.31694        37.89436         1.62380
C         25.69993        39.82526         0.67309
C         24.40812        39.07226         0.75083
C         25.64981        41.19212         0.04591
C         24.33183        41.84116        -0.25279
C         25.77371        43.72702        -1.26998
C         24.40463        43.08968        -1.08174
C         25.97984        44.96153        -2.05016
C         24.05342        45.90185        -2.44844
C         25.60049        47.89787        -2.81546
C         24.26006        47.29568        -2.41448
C         25.67477        49.39637        -2.84692
C         24.53500        50.19141        -2.26321
C         25.84273        52.39651        -2.68245
C         24.57089        51.69671        -2.37768
C         25.82701        53.81138        -3.10285
C         24.61100        54.50327        -3.16811
C         25.93297        56.64001        -3.33672
C         24.61850        55.94850        -3.54222
C         25.94207        58.04823        -3.32652
C         24.74701        58.80042        -3.24602
C         24.77967        60.22282        -3.26616
C         27.01803         8.87290        -3.23017
C         28.26050        10.84644        -2.40519
C         27.03278        10.16343        -2.69232
C         28.28402        12.19136        -2.03336
C         26.98963        12.96553        -2.12093
C         28.21682        14.95382        -1.22946
C         27.00788        14.28385        -1.40567
C         28.20174        16.33889        -0.87830
C         27.00035        17.04361        -0.85659
C         28.23037        19.28640        -0.70304
C         27.01336        18.51911        -0.93958
C         28.21698        20.70411        -0.74630
C         26.94019        21.41870        -0.63596
C         28.16381        23.60934        -0.48205
C         26.91446        22.81959        -0.41353
C         28.20669        24.91726         0.19149
C         26.93448        25.56814         0.42434
C         28.15353        27.51207         1.50853
C         26.90003        26.88349         0.94057
C         28.20691        29.01555         1.21089
C         26.89245        29.71407         1.56292
C         28.11262        31.79715         2.34070
C         26.83548        31.10461         2.08257
C         28.11642        33.15837         2.52974
C         26.86273        33.87502         2.66351
C         28.08245        36.03416         2.57947
C         26.83759        35.26342         2.65381
C         28.04925        37.42507         2.46034
C         26.79633        38.18459         2.27877
C         28.03585        40.20611         1.43940
C         26.85630        39.45056         1.50955
C         28.08839        41.49938         0.85136
C         26.80622        42.08626         0.39362
C         28.08856        44.22732        -0.25166
C         26.82614        43.42465        -0.24882
C         28.12243        45.49643        -1.05657
C         26.96892        45.87255        -1.92172
C         28.20762        48.00072        -2.50722
C         26.97741        47.11157        -2.83376
C         28.24452        49.36470        -2.66360
C         27.00345        50.10963        -2.98264
C         28.34690        52.32798        -2.81725
C         27.06402        51.60392        -2.98183
C         28.30561        53.74414        -2.94785
C         27.11209        54.47229        -3.14770
C         27.11469        55.89664        -3.25910
C         29.47705        12.88698        -1.75507
C         30.69882        14.97015        -1.26271
C         29.49359        14.26579        -1.41905
C         30.74674        16.34757        -0.90309
C         29.47432        17.01727        -0.57437
C         30.74297        19.22769        -0.68855
C         29.47637        18.54835        -0.46053
C         30.70416        20.66607        -0.93141
C         29.44090        21.40708        -0.76016
C         30.72697        23.56804        -0.30593
C         29.48180        22.87871        -0.71327
C         30.70348        24.85470         0.22469
C         29.43461        25.53459         0.48833
C         30.63912        27.54713         1.28313
C         29.45022        26.85861         1.05503
C         30.63100        28.93719         1.76346
C         29.42722        29.63311         1.86406
C         30.61872        31.79111         2.18855
C         29.37036        30.97876         2.56183
C         30.57280        33.21545         2.70029
C         29.37165        33.90681         2.65997
C         30.57715        36.07943         2.53091
C         29.34163        35.34566         2.66833
C         30.54967        37.47171         2.43195
C         29.28743        38.20658         2.49894
C         30.55683        40.34180         1.72497
C         29.27346        39.66852         2.04693
C         30.55381        41.71054         1.23196
C         29.31026        42.26128         0.74589
C         30.57969        44.23761        -0.04660
C         29.34430        43.54989         0.14572
C         30.64092        45.45126        -0.80430
C         29.45873        45.94906        -1.51139
C         30.73209        48.06915        -2.06851
C         29.48675        47.30234        -2.24019
C         30.68637        49.47061        -2.28887
C         29.48498        50.13534        -2.54309
C         29.49761        51.56750        -2.64945
C         31.93340        17.07735        -0.82776
C         33.19101        19.23063        -0.62985
C         31.95543        18.51053        -0.71747
C         33.24192        20.62604        -0.53576
C         32.03157        21.41161        -0.88125
C         33.27776        23.52397        -0.10339
C         32.00591        22.88773        -0.59804
C         33.15097        24.79687         0.61609
C         31.94559        25.49250         0.66577
C         33.08782        27.53994         1.47306
C         31.90841        26.86589         1.15578
C         33.11010        28.92625         1.89497
C         31.87679        29.58701         2.07179
C         33.11051        31.68758         2.94868
C         31.84512        30.98737         2.57461
C         33.13599        33.20405         3.00911
C         31.83145        33.95410         2.91714
C         33.07028        36.03051         2.35296
C         31.85818        35.38424         2.55075
C         33.03290        37.43457         1.89898
C         31.74237        38.19502         1.99611
C         33.01342        40.40660         2.06481
C         31.73744        39.67209         1.89950
C         33.01955        41.92580         1.87091
C         31.76585        42.41749         1.13346
C         33.03455        44.36303         0.22692
C         31.79883        43.67336         0.46374
C         33.05479        45.55645        -0.46677
C         31.86342        46.13255        -1.00366
C         31.88325        47.43001        -1.60310
C         34.42485        21.29703        -0.13346
C         35.67099        23.30655         0.52986
C         34.48911        22.68228         0.11602
C         35.70719        24.69694         0.86082
C         34.39614        25.35243         1.15574
C         35.60900        27.59039         1.33865
C         34.35967        26.80460         1.53204
C         35.60644        28.98482         1.80554
C         34.35780        29.59004         2.13368
C         35.64767        31.75543         2.55591
C         34.39503        30.95169         2.71743
C         35.57992        33.24325         2.54396
C         34.36844        33.93677         2.63545
C         35.58740        36.00506         2.11005
C         34.35698        35.34084         2.40461
C         35.59267        37.44954         1.77285
C         34.31260        38.20107         1.76498
C         35.62903        40.43770         2.09259
C         34.30967        39.65379         2.14220
C         35.45397        41.67423         1.22669
C         34.31116        42.38913         1.20807
C         34.34653        43.83264         0.75405
C         36.89004        25.38624         1.03872
C         38.13637        27.62143         1.43700
C         36.92283        26.86007         1.13802
C         38.08644        29.00322         1.60286
C         36.82299        29.68053         1.76410
C         38.08698        31.83773         2.10307
C         36.78086        31.18076         1.72144
C         38.00076        33.12834         2.54701
C         36.80008        33.93563         2.42144
C         38.07505        36.05811         1.78662
C         36.83588        35.33419         2.16088
C         38.05740        37.43153         1.66200
C         36.86057        38.22161         1.83562
C         36.84272        39.58516         1.78840
C         39.31186        29.78563         1.62022
C         40.57428        31.88842         1.54813
C         39.34387        31.15233         1.83982
C         40.74791        33.23991         1.43138
C         39.76681        34.20416         1.90803
C         39.30724        35.36853         1.36416
O         31.45103        21.06633        -2.16270
O         22.80382        51.59183        -4.00913
O         23.86175        38.87441        -0.59320
O         17.94336        48.67431        -3.27744
O         33.57581        39.94322         3.36753
O         20.27064        23.21779        -2.05280
O         10.63696        28.62047        -0.54886
O         19.53486        17.86510         1.10101
O         25.16909        28.72432         3.14278
O         18.23532        19.58543        -2.02239
O         25.32345        52.30191        -1.29382
O         29.20554        39.33729         3.46887
O         26.31279        43.26773         1.11969
O         26.64390        30.80679         0.60752
O         27.02721        50.86328        -4.25062
O         24.43382        55.95474        -5.12300
O         16.51233        29.57872         3.49060
O         19.92779        52.05000        -4.00547
O         18.09733        15.23627         1.00618
O         21.10074        38.96465        -0.68768
O         22.81674        44.10301         0.33047
O         32.49886        33.70666         4.22191
O         32.87780        23.62972        -1.51754
O         15.11187        40.46426         3.03765
O         25.24883        42.71707        -2.21528
O         18.05813        24.58735        -1.69401
O         23.65176        15.44128         0.87911
O         17.53954        26.52870         2.26633
O         25.08460        33.46780         4.28188
O         15.30648        22.66105         1.16117
O         25.39416        48.64111        -4.07027
O         28.78500        23.56849        -1.81275
O         32.24708        31.09860         3.98119
O         12.57716        22.89465         1.52862
O         25.03142        45.12183        -3.06138
O         13.73564        25.24834        -1.17671
O         35.38243        31.09681         3.81696
O         34.36257        25.77629         2.57626
O          8.24196        32.24994         3.40952
O         21.34746        18.66535        -1.86433
O         29.62104        46.03215        -2.95060
O         21.73551        50.86812        -0.57515
O         17.67594        44.39244         1.23641
O         20.56699        32.15618         4.30285
O         22.47228        36.10712         3.99214
O         15.53123        44.53551        -1.61381
O         32.21611        37.61445         0.69077
O         18.80712        11.78146         0.04082
O         15.71428        19.89089         0.91422
O         14.78164        30.82007         0.32713
O         29.45892        17.67431         0.73739
O         34.92854        37.84256         0.49141
O         23.46159        10.71699        -0.47978
O         25.91908        38.25231         3.47467
O         26.07797        40.05238        -0.74540
O         26.31801        18.96293        -2.19105
O         27.92505        45.56729         0.38172
O         14.13243        35.60445         0.59994
O         18.08732        32.20221         4.14838
O         39.11782        33.76811         3.08528
O         22.51919        20.89207         1.06733
O         23.20331        29.13682         0.14578
O         24.21092        49.80664        -0.89566
O         21.82615        26.91831        -1.09294
O         36.15483        27.46336        -0.00992
O         30.68186        31.90851         0.74142
H         29.85402        32.33017         0.42667
O         35.90046        40.96190         3.41975
H         35.02864        41.19312         3.81889
O          7.01671        31.56033         0.05678
H          6.29897        31.08260        -0.40974
O         10.71253        35.88246        -0.11676
H         10.84026        34.93499        -0.33850
O         29.38148        30.71232         3.98966
H         30.30869        30.70838         4.31899
O         25.51731        55.20849        -5.67760
H         25.11878        54.32410        -5.87011
O         14.29660        21.50891        -2.10323
H         14.13457        20.66942        -2.58176
O         14.14194        38.18396         3.83617
H         14.65736        38.94212         4.20398
O         18.04100        38.11171         4.12358
H         18.51525        37.43382         4.67788
O         26.87575        13.32249        -3.55415
H         26.09738        13.91111        -3.65327
O         35.39431        44.05893        -0.19130
H         35.16825        43.59327        -1.02215
O         28.08856        27.38228         2.95189
H         27.93811        26.44192         3.17985
O         22.04770        13.46084         1.16219
H         22.42379        14.18284         1.71663
O         23.50166        25.08508        -1.95545
H         23.14083        25.95377        -2.24790
O         18.74763        38.23416        -0.15273
H         19.49840        38.08373        -0.77905
O         22.03445        28.54080         3.56939
H         21.30937        28.79410         4.17985
O         13.34134        48.39269        -1.46554
H         13.44192        48.02173        -2.36624
O         28.40236        29.14191        -0.21546
H         27.95767        29.97623        -0.49610
O         19.93348        58.84664        -3.20252
H         20.07912        58.63927        -4.14832
O         27.15800        46.65729        -4.18017
H         26.80595        47.35816        -4.77492
O         19.99720        39.24907         3.10975
H         19.39541        39.20136         3.89876
O         19.61698        36.08114         4.70185
H         20.59197        36.13701         4.84593
O         32.99660        42.55588         3.17793
H         32.27916        42.14342         3.70380
O         36.45667        31.54860         0.34010
H         37.06778        31.06269        -0.25330
O         22.06760         9.86152        -4.77010
H         22.04912         9.21872        -5.51111
H          4.82999        31.25492         2.17129
H          4.84134        33.67610         2.61779
H          7.29929        27.03568         1.11588
H          6.07204        29.09497         1.47578
H          6.04807        35.87814         1.94620
H          7.29889        37.97879         1.64151
H          9.67063        22.85577         0.03664
H          8.49106        24.92325         0.65684
H          8.51564        40.11962         1.40406
H          9.76582        42.25364         0.98849
H         12.26217        18.43554        -0.37777
H         11.02741        20.49949         0.07740
H         11.01640        44.31805         0.42088
H         12.31363        46.40205        -0.09217
H         14.88419        14.28228        -1.11232
H         13.57213        16.31079        -0.73760
H         14.30665        48.41442         0.34340
H         14.90379        50.45258        -1.36593
H         17.45469        10.35328        -2.58031
H         16.19044        12.35930        -1.87297
H         16.24690        52.51881        -1.56865
H         17.58231        54.61168        -1.99790
H         19.87015         6.43387        -4.26667
H         18.64070         8.36085        -3.29668
H         18.87699        56.66535        -2.22056
H         20.78211        58.50497        -1.36683
H         23.24969         3.39352        -5.75019
H         21.10149         4.54840        -5.26420
H         23.65162        62.05239        -3.12040
H         21.48252        60.89211        -2.67745
H         25.42470         4.46810        -5.21352
H         26.70202         6.40830        -4.36059
H         26.90648        58.57908        -3.32091
H         25.74034        60.73159        -3.42979
H         27.97023         8.37192        -3.46058
H         29.20691        10.29089        -2.49428
H         29.25437        54.30090        -2.90843
H         28.07656        56.42971        -3.20373
H         30.43391        12.34486        -1.80843
H         31.64816        14.44338        -1.44354
H         31.61372        50.05449        -2.19009
H         30.47152        52.07380        -2.56693
H         32.89072        16.55750        -0.98211
H         34.11905        18.65587        -0.49371
H         34.01696        46.06417        -0.62866
H         32.82134        48.00359        -1.55623
H         35.32608        20.69213         0.04839
H         36.60576        22.72643         0.55645
H         36.35854        42.13487         0.79642
H         34.60892        44.43851         1.66676
H         37.84705        24.85282         0.93139
H         39.10444        27.09925         1.45950
H         38.99072        37.95764         1.41064
H         37.79954        40.12671         1.72703
H         40.24927        29.25875         1.38495
H         41.40804        31.25299         1.20542
H         41.67404        33.61162         0.96497
H         39.85696        35.82216         0.52514
