         620
 CSIRO Nanostructure Databank - Neutral Graphene Oxide Data Set
C         23.00625        27.38174        -0.62093
C         23.00395        28.73956        -0.86125
C         23.06602        31.63742        -1.42823
C         23.10203        33.00057        -1.59651
C         23.06070        35.90118        -0.87837
C         23.05443        37.23425        -0.66840
C         22.98833        40.19077        -0.68679
C         22.96087        41.56012        -0.60614
C         22.93630        44.51359        -0.73599
C         22.89615        45.87139        -0.77348
C         25.37927        24.58102         0.16419
C         24.20524        25.27159        -0.05475
C         25.45625        27.33967        -0.37003
C         24.22534        26.66150        -0.35362
C         25.51470        28.74907        -0.89870
C         24.20483        29.49551        -0.90681
C         25.47904        31.64240        -0.94148
C         24.24324        30.90182        -1.09047
C         25.46681        33.07079        -1.03815
C         24.29193        33.74128        -1.34901
C         25.53755        35.94211        -1.16459
C         24.25171        35.23834        -1.52780
C         25.48402        37.38313        -1.06776
C         24.24739        38.04470        -0.86181
C         25.44505        40.19033        -0.61200
C         24.22173        39.46477        -0.72147
C         25.40606        41.62812        -0.43296
C         24.16066        42.32671        -0.49183
C         25.34291        44.46381        -0.20530
C         24.13941        43.76332        -0.42562
C         25.33692        45.92225        -0.01408
C         24.02113        46.68466        -0.29841
C         25.33928        48.75726        -0.49113
C         24.16050        48.09883        -0.65916
C         27.89937        23.13241         0.59326
C         27.88054        24.53278         0.35712
C         26.63895        25.23890         0.14550
C         27.92069        27.34211        -0.05922
C         26.66827        26.64633        -0.08881
C         27.92278        28.81760        -0.02354
C         26.64184        29.55406        -0.29700
C         27.94348        31.67840        -0.55059
C         26.69394        30.99172        -0.61344
C         27.98841        33.08563        -0.72786
C         26.68642        33.82305        -0.55338
C         27.99829        35.93432        -1.04042
C         26.73033        35.26180        -0.98835
C         27.96577        37.38973        -1.26414
C         26.69721        38.11459        -1.00882
C         27.95149        40.17579        -0.43164
C         26.67953        39.48425        -0.71837
C         27.89171        41.64460        -0.14451
C         26.60314        42.36133        -0.25133
C         27.80552        44.52033         0.06693
C         26.58612        43.77207        -0.12175
C         27.80478        45.91262        -0.02539
C         26.59884        46.66937        -0.11259
C         27.80311        48.84484        -0.06273
C         26.58724        48.08778        -0.18440
C         27.84985        50.24001         0.12363
C         30.32821        23.13778         0.82396
C         29.08063        22.45953         0.81155
C         30.34839        24.53817         0.55326
C         29.12175        25.23122         0.31823
C         30.38160        27.37529         0.04904
C         29.13266        26.65508         0.10022
C         30.39410        28.79436        -0.17047
C         29.18853        29.54344        -0.19742
C         30.41690        31.64059        -0.60611
C         29.17886        30.94167        -0.42090
C         30.44392        33.06575        -0.82452
C         29.21069        33.78773        -0.83830
C         30.48818        35.95196        -0.99604
C         29.21921        35.23744        -0.98107
C         30.50210        37.34856        -0.94566
C         29.28718        38.14139        -1.17338
C         30.43747        40.26232        -0.55741
C         29.25867        39.56342        -0.76395
C         30.41667        41.68434        -0.22944
C         29.13156        42.45663        -0.42351
C         30.35163        44.54058         0.30629
C         29.06997        43.74743         0.39936
C         30.31685        45.91597         0.26663
C         29.08976        46.63336        -0.12658
C         30.35983        48.86903         0.15074
C         29.09660        48.14442        -0.15059
C         30.32653        50.31172         0.26410
C         29.04794        50.94006         0.25604
C         32.81174        20.36210         1.53375
C         31.60171        21.06849         1.41774
C         32.78538        23.21608         1.24280
C         31.54611        22.43893         1.15194
C         32.81978        24.59209         0.72615
C         31.59792        25.25847         0.48406
C         32.85250        27.35300         0.08383
C         31.60373        26.66424         0.19046
C         32.86946        28.74320        -0.25757
C         31.63325        29.47959        -0.37573
C         32.83693        31.55247        -1.04774
C         31.61099        30.87565        -0.62301
C         32.89313        33.02075        -1.07651
C         31.69280        33.76856        -0.99834
C         32.98116        35.87484        -1.30845
C         31.74668        35.21240        -1.06564
C         33.06973        37.34769        -1.00459
C         31.74485        38.08127        -0.68266
C         32.89836        40.27751        -0.59012
C         31.71715        39.56871        -0.65350
C         32.84930        41.75030        -0.43243
C         31.58158        42.39160        -0.01805
C         32.81682        44.52845         0.38120
C         31.60503        43.82231         0.26968
C         32.81989        45.95123         0.74284
C         31.50295        46.70216         0.60003
C         32.83153        48.82089         0.29076
C         31.52766        48.15463         0.34995
C         32.82847        50.35470         0.34148
C         31.53335        51.03170         0.50725
C         32.77447        53.06039         1.08639
C         31.57924        52.39580         0.89876
C         35.33038        18.82692         1.51898
C         35.29730        20.23507         1.31106
C         34.06167        20.96855         1.38006
C         35.34238        23.10998         0.88932
C         34.12156        22.43677         1.34977
C         35.31400        24.50598         0.62042
C         34.07310        25.24623         0.56354
C         35.33183        27.33228         0.14078
C         34.08195        26.64296         0.25274
C         35.34230        28.74802        -0.14265
C         34.11419        29.40124        -0.40535
C         35.39064        31.52330        -0.92306
C         34.14058        30.76767        -0.93490
C         35.37634        32.90646        -1.22506
C         34.14353        33.65279        -1.28183
C         35.40553        35.58545        -1.98035
C         34.16622        35.07193        -1.52446
C         35.42447        37.86570        -1.83974
C         34.23366        38.25952        -1.23789
C         35.36889        40.38896        -0.74163
C         34.18468        39.63779        -0.79598
C         35.43104        41.89461        -0.69792
C         34.10518        42.55848        -0.40755
C         35.27982        44.55529         0.55221
C         34.09610        43.90589         0.20698
C         35.30843        45.98695         0.76422
C         34.08772        46.70780         0.68234
C         35.30402        48.83578         0.72542
C         34.08567        48.10878         0.62127
C         35.29805        50.27898         0.78939
C         34.08041        51.01552         0.74493
C         35.28970        53.11296         1.15204
C         34.04790        52.40420         1.00064
C         35.32093        54.55727         1.07379
C         37.76487        18.78105         1.40648
C         36.51227        18.12141         1.56347
C         37.73639        20.18509         1.13538
C         36.53115        20.91935         1.06822
C         37.75110        23.03818         0.48828
C         36.54273        22.35506         0.78261
C         37.79083        24.45014         0.33047
C         36.54430        25.18916         0.35511
C         37.83050        27.30096         0.13411
C         36.53490        26.59164         0.18404
C         37.84936        28.77969        -0.07782
C         36.56981        29.46995        -0.30822
C         37.87324        31.44225        -1.20295
C         36.59467        30.81398        -0.70533
C         37.87868        32.94202        -1.14048
C         36.63983        33.58946        -1.32816
C         37.91562        35.57103        -1.95156
C         36.64305        34.93661        -1.78188
C         37.92548        37.86142        -1.71352
C         36.67224        38.49868        -1.55028
C         37.87688        40.40771        -0.65037
C         36.63570        39.76704        -0.91555
C         37.88564        41.77603        -0.18777
C         36.57272        42.37248         0.16878
C         37.83174        44.47078         0.91017
C         36.52899        43.76758         0.68177
C         37.80035        45.97620         1.06230
C         36.52244        46.70269         0.90382
C         37.78119        48.84322         0.99123
C         36.53279        48.12047         0.88260
C         37.77389        50.25216         1.05223
C         36.52344        50.97431         1.00789
C         37.76915        53.10145         1.38299
C         36.49928        52.38842         1.16927
C         37.76971        54.63146         1.32581
C         36.47679        55.26894         1.04637
C         40.27909        15.97042         1.30239
C         39.10241        16.65655         1.17518
C         40.26416        18.78108         1.64530
C         39.00300        18.05632         1.44127
C         40.26544        20.26443         1.26547
C         38.99920        20.82787         0.73983
C         40.29342        23.01709         0.42605
C         39.01143        22.29545         0.36433
C         40.28014        24.42165         0.20907
C         39.03985        25.10421         0.11268
C         40.32796        27.27641        -0.19902
C         39.02628        26.53061        -0.36878
C         40.34004        28.70138        -0.34901
C         39.12765        29.43999        -0.44210
C         40.35034        31.55439        -0.76901
C         39.13859        30.80571        -0.72185
C         40.34743        32.96588        -0.97278
C         39.10265        33.65648        -1.15822
C         40.38652        35.91315        -1.55362
C         39.10715        35.05844        -1.47425
C         40.24491        37.33397        -0.90790
C         39.10256        38.24158        -1.01806
C         40.27872        40.44582        -0.47437
C         39.09473        39.65844        -0.64416
C         40.23902        41.89765        -0.86247
C         39.04504        42.52788        -0.15225
C         40.26000        44.60145         0.41812
C         39.08027        43.86558         0.38208
C         40.27485        46.00329         0.77749
C         39.05992        46.71730         0.90760
C         40.27545        48.82711         1.12179
C         39.03812        48.12963         1.00124
C         40.26859        50.26980         1.13274
C         39.02449        50.97029         1.09768
C         40.23395        53.11477         0.98255
C         39.03425        52.38834         1.13608
C         40.20681        54.55380         0.82779
C         39.04295        55.30589         0.97400
C         40.24464        57.44492         0.81503
C         39.08730        56.74556         0.97960
C         42.76134        15.91609         1.35161
C         41.53296        16.60498         1.85553
C         42.73856        18.76705         1.26657
C         41.55302        18.08439         1.57715
C         42.73846        20.21176         1.02997
C         41.53787        20.91677         0.91738
C         42.74906        23.03066         0.55136
C         41.50827        22.31386         0.58702
C         42.75994        24.43199         0.26507
C         41.53634        25.12865         0.07623
C         42.78200        27.25520        -0.40423
C         41.51522        26.54776        -0.14846
C         42.80192        28.72389        -0.40584
C         41.57824        29.42448        -0.43956
C         42.80092        31.56466        -0.56699
C         41.58029        30.85008        -0.57755
C         42.78438        33.00781        -0.64691
C         41.57096        33.72329        -0.89993
C         42.76649        35.84145        -0.58579
C         41.58688        35.15124        -0.96886
C         42.72399        37.27946        -0.32370
C         41.37270        37.76419        -0.21063
C         42.75534        40.37290        -0.15351
C         41.44796        39.89278         0.02809
C         42.88554        41.79985        -0.64655
C         41.57275        42.61170        -0.60842
C         42.79162        44.60189         0.47781
C         41.54087        43.98727        -0.01955
C         42.76902        45.94778         0.88486
C         41.51271        46.69802         0.94007
C         42.72575        48.80040         1.60089
C         41.49152        48.08618         1.19875
C         42.74436        50.32171         1.45991
C         41.48072        51.00740         1.11926
C         42.73332        53.12224         0.81346
C         41.48324        52.41008         0.94458
C         42.73822        54.51675         0.57506
C         41.45331        55.21854         0.41910
C         42.77741        57.41063         0.57220
C         41.47163        56.76944         0.39755
C         43.88602        16.61309         1.00549
C         45.19116        18.74592         0.56584
C         43.94297        18.03505         1.04462
C         45.23068        20.22192         0.90536
C         43.98506        20.92476         0.93565
C         45.18137        23.10525         1.04219
C         43.95223        22.33752         0.83190
C         45.20161        24.51953         0.66508
C         44.03709        25.12419         0.25977
C         45.31211        27.30731        -0.00945
C         44.07964        26.52356        -0.20234
C         45.28470        28.70786        -0.25887
C         44.03685        29.41234        -0.42343
C         45.26631        31.53554        -0.40463
C         44.02787        30.83870        -0.46322
C         45.22289        32.98786        -0.13855
C         43.97758        33.72986        -0.40930
C         45.17381        35.86378         0.12374
C         43.96096        35.12551        -0.30830
C         45.14215        37.38234         0.18757
C         43.85327        38.09003        -0.04805
C         45.18617        40.23434         0.09380
C         43.90872        39.55116        -0.00532
C         45.20362        41.68722         0.24378
C         44.03379        42.46217         0.08627
C         45.22566        44.49430         0.79938
C         44.00302        43.83918         0.45381
C         45.20109        45.90097         1.04215
C         44.00465        46.61379         1.12540
C         45.27875        48.83612         1.45015
C         44.02056        47.99188         1.76031
C         45.28692        50.34449         1.30718
C         44.00481        51.05532         1.24374
C         45.22176        53.12359         0.65307
C         43.98446        52.41056         0.89096
C         45.20042        54.52659         0.45620
C         43.94917        55.24298         0.47248
C         43.92740        56.68550         0.51620
C         47.65584        18.75296         0.90702
C         46.48746        18.06997         0.92710
C         47.70235        20.19506         0.75808
C         46.46112        20.89655         0.88695
C         47.75112        23.09751         0.75761
C         46.51093        22.35617         1.08237
C         47.74906        24.49797         0.68127
C         46.47738        25.28542         0.95414
C         47.73472        27.36416         0.26819
C         46.50034        26.66515         0.34207
C         47.74400        28.75190        -0.00864
C         46.50695        29.42949        -0.21995
C         47.75179        31.57264        -0.49029
C         46.47602        30.84983        -0.35607
C         47.77286        33.06616        -0.37446
C         46.50120        33.75002        -0.01776
C         47.68158        35.91734         0.03607
C         46.48774        35.21971        -0.04251
C         47.66161        37.36860         0.12030
C         46.44015        38.08319         0.09591
C         47.67279        40.17744         0.35621
C         46.42292        39.51101         0.14477
C         47.64851        41.57881         0.78391
C         46.41405        42.36356         0.61756
C         47.73324        44.44461         1.10153
C         46.44232        43.74543         0.84056
C         47.75819        45.96058         1.02697
C         46.46018        46.65301         0.82791
C         47.73223        48.87758         0.74519
C         46.46110        48.14624         0.86432
C         47.72898        50.27965         0.65917
C         46.50801        51.01513         0.81139
C         47.70009        53.12844         0.39402
C         46.47482        52.41435         0.60959
C         47.63370        54.53299         0.19576
C         46.43317        55.20412         0.21582
C         50.17407        20.22400         0.48079
C         48.92749        20.90871         0.62253
C         50.19155        23.04506         0.44548
C         48.95444        22.34854         0.58266
C         50.21203        24.47790         0.45491
C         48.97247        25.21328         0.52508
C         50.19647        27.36647         0.37894
C         48.97625        26.64182         0.41401
C         50.23471        28.75744         0.15948
C         48.99841        29.48372        -0.04794
C         50.27153        31.62368        -0.56309
C         49.00974        30.84833        -0.29253
C         50.24487        33.07297        -0.09018
C         49.02348        33.78706        -0.06345
C         50.15706        35.92742         0.26094
C         48.95550        35.20274         0.09178
C         50.15105        37.33747         0.24301
C         48.91333        38.06224         0.18891
C         50.16940        40.20073         0.35622
C         48.90454        39.48494         0.32498
C         50.20869        41.60110         0.47282
C         49.00168        42.32889         0.84916
C         50.19874        44.50055         0.59546
C         49.00602        43.78587         0.79665
C         50.18951        45.96127         0.50232
C         48.99097        46.65135         0.62143
C         50.20971        48.85066         0.11320
C         48.89556        48.09132         0.31588
C         50.20118        50.30885         0.30948
C         48.97062        50.99974         0.42873
C         50.20136        53.10739         0.33781
C         48.95383        52.42483         0.38838
C         51.36210        20.89795         0.35033
C         52.66460        23.03182         0.27419
C         51.42343        22.32687         0.35111
C         52.69154        24.46321         0.35512
C         51.45164        25.15879         0.45420
C         52.75695        27.36491         0.51084
C         51.44368        26.61965         0.63098
C         52.72326        28.79943         0.19528
C         51.48464        29.48316         0.09276
C         52.71224        31.60419        -0.09078
C         51.50469        30.88637        -0.12711
C         52.70260        33.04888        -0.00591
C         51.46095        33.74384         0.12263
C         52.69719        35.93577         0.46098
C         51.39828        35.15964         0.67628
C         52.64570        37.37826         0.15395
C         51.40952        38.06156         0.20611
C         52.63028        40.19883         0.10451
C         51.39584        39.48360         0.18420
C         52.62636        41.61399         0.19478
C         51.42802        42.33993         0.35908
C         52.67460        44.50542         0.31485
C         51.42741        43.78403         0.42999
C         52.68014        45.96981         0.30451
C         51.44194        46.68314         0.30996
C         52.68174        48.83018         0.19387
C         51.46245        48.09564         0.24145
C         52.67707        50.26703         0.16565
C         51.43720        51.00358         0.27433
C         51.39804        52.42544         0.31680
C         55.09512        23.00111         0.01011
C         53.90458        22.33570         0.12165
C         55.17208        24.43113         0.06582
C         53.94687        25.16941         0.26768
C         55.17414        27.31208         0.01037
C         53.98696        26.59740         0.24607
C         55.17143        28.73358        -0.10932
C         53.94353        29.47642        -0.01114
C         55.18898        31.60748        -0.20595
C         53.95785        30.90293        -0.09045
C         55.16935        33.05187        -0.21990
C         53.94534        33.73121        -0.02262
C         55.12245        35.95046        -0.39465
C         53.97381        35.20115         0.15210
C         55.09013        37.35317        -0.42713
C         53.86620        38.07254        -0.10832
C         55.07282        40.22575        -0.39428
C         53.85823        39.48597        -0.10499
C         55.06898        41.60613        -0.33361
C         53.93748        42.31421         0.36146
C         55.15442        44.49831         0.15274
C         53.86058        43.80081         0.15139
C         55.18341        45.99642         0.24107
C         53.88972        46.69701         0.23287
C         55.15761        48.82109        -0.06100
C         53.91394        48.11360         0.13346
C         55.11104        50.23744        -0.08081
C         53.92016        50.93073         0.04673
C         57.63096        24.42908        -0.37593
C         56.40608        25.10217        -0.10111
C         57.63736        27.25842        -0.52674
C         56.48585        26.58596         0.16664
C         57.56293        28.68761        -0.81787
C         56.36877        29.45494        -0.38964
C         57.68747        31.57337        -0.46702
C         56.39034        30.85687        -0.38724
C         57.66278        33.11197        -0.54755
C         56.35671        33.81530        -0.51715
C         57.46027        35.93908        -1.26167
C         56.29631        35.19985        -0.72130
C         57.48320        37.40994        -1.14281
C         56.28272        38.10188        -0.79119
C         57.47922        40.24465        -1.07648
C         56.27700        39.51387        -0.77874
C         57.48827        41.66893        -1.06929
C         56.22566        42.36817        -0.81552
C         57.57829        44.55564        -0.63833
C         56.28283        43.85617        -0.57489
C         57.59663        45.96308        -0.42015
C         56.41577        46.69775        -0.17763
C         57.59577        48.78761        -0.71068
C         56.38440        48.11291        -0.27995
C         58.79619        25.11575        -0.63447
C         60.03455        27.25256        -1.06561
C         58.80318        26.55024        -0.77268
C         60.09356        28.60836        -1.12687
C         58.86639        29.41645        -1.14889
C         60.03996        31.62093        -1.17180
C         58.90755        30.88763        -0.92799
C         60.01700        33.04877        -1.25078
C         58.86338        33.77109        -1.08320
C         59.99574        36.02828        -1.46942
C         58.78012        35.20535        -1.46296
C         59.92519        37.38037        -1.51803
C         58.68004        38.10851        -1.39372
C         59.85051        40.30747        -1.66913
C         58.68389        39.54514        -1.37838
C         59.84976        41.68281        -1.61913
C         58.66964        42.41530        -1.29544
C         59.88642        44.63084        -1.45246
C         58.70364        43.85756        -1.11963
C         59.97996        45.95384        -1.19205
C         58.91934        46.68926        -0.42417
C         58.77107        48.13006        -0.83854
O         33.50013        23.07067         2.51372
O         29.23078        47.35144        -1.40551
O         28.65203        37.86064        -2.47989
O         33.30242        42.50557        -1.65306
O         57.87607        35.45142        -2.59533
O         27.97702        40.71965         0.96597
O         46.27013        47.41213        -0.42174
O         53.65637        35.63696         1.54341
O         57.93286        29.02639        -2.21329
O         41.23329        38.73367         0.78834
O         32.96917        49.62915        -0.92916
O         37.95464        36.79886        -2.61549
O         37.89395        45.07063         2.23549
O         37.80504        53.91855         2.60650
O         41.65435        43.77225        -1.51102
O         35.42640        36.77298        -2.70310
O         32.02985        46.31732         1.92984
O         32.58272        37.53012         0.37754
O         48.33412        41.80290         2.05405
O         40.17448        19.86150         2.65494
O         45.86449        22.81373         2.32722
O         55.45499        45.14221         1.43016
O         38.01111        28.17476         1.28252
O         39.02860        21.22161        -0.66587
O         36.32177        42.58367         1.57634
O         49.38671        48.43307        -1.02904
O         55.84543        43.34978        -1.88173
O         47.78976        45.27964         2.31761
O         57.91784        32.40764         0.71867
O         47.75562        32.46095        -1.72273
O         45.83070        33.25042         1.19596
O         33.43935        30.91326        -2.22932
O         43.52246        26.67763        -1.55847
O         24.45238        46.37820         1.06287
O         45.04599        36.55353         1.41267
O         27.02877        29.29307         1.08116
O         52.17052        27.06068         1.83545
O         45.61515        49.64713         2.60139
O         42.57056        49.65086         2.78382
O         41.34307        55.97827        -0.82557
O         46.45674        25.51361         2.40432
H         46.35768        24.62153         2.82031
O         54.27785        42.17930         1.80683
H         53.60724        42.68342         2.31660
O         44.11724        47.65661         3.16565
H         43.93805        48.48860         3.66344
O         35.82623        42.31952        -2.03497
H         35.01144        42.28704        -2.58847
O         56.79237        26.69660         1.61838
H         56.05201        26.27183         2.10341
O         39.97065        41.97045        -2.28441
H         40.26633        42.86229        -2.57795
O         26.50712        33.91394         0.91412
H         26.55030        33.00000         1.27043
O         43.28307        41.73613        -2.04520
H         43.06642        42.61320        -2.43531
O         38.81017        26.45893        -1.82343
H         39.55628        25.95607        -2.21443
O         28.96170        43.33413         1.78671
H         29.01416        44.12978         2.35576
O         40.69305        36.09832        -2.95866
H         39.90056        36.50737        -3.37370
O         29.07248        42.79776        -1.83146
H         29.90204        43.25987        -2.07677
O         37.86711        31.14085        -2.65645
H         37.04655        31.52656        -3.03289
O         50.37401        31.70467        -2.03423
H         49.50271        32.05791        -2.34536
O         41.50581        16.43350         3.32824
H         40.83582        17.05803         3.68027
O         59.38017        46.71807         0.98086
H         58.63775        47.06467         1.52083
O         45.10328        18.68082        -0.91159
H         45.92985        19.07353        -1.26557
O         51.23524        34.99199         2.11883
H         52.14555        34.97720         2.49997
O         24.08863        35.44840        -2.97476
H         24.07451        36.41692        -3.12984
O         25.89918        28.62433        -2.32129
H         25.16944        28.15986        -2.78378
H         22.05485        26.83251        -0.58114
H         22.03701        29.24923        -0.97786
H         22.12198        31.10316        -1.59980
H         22.19366        33.53389        -1.90893
H         22.15648        35.30806        -0.67852
H         22.15053        37.71424        -0.26692
H         22.03863        39.64506        -0.76904
H         21.98762        42.06882        -0.60914
H         22.04908        43.95897        -1.07178
H         22.00949        46.38647        -1.17254
H         25.32460        23.50178         0.35857
H         23.24151        24.74308        -0.02939
H         25.37860        49.83000        -0.72813
H         23.28599        48.62627        -1.06849
H         26.96081        22.56353         0.61100
H         26.91166        50.81040         0.17524
H         29.04369        21.37853         0.99882
H         28.99269        52.03071         0.37712
H         32.74565        19.27254         1.65619
H         30.67418        20.48138         1.45521
H         32.73893        54.12317         1.36010
H         30.64177        52.95329         1.03309
H         34.39043        18.28268         1.68050
H         34.37672        55.08887         0.89251
H         36.49046        17.04036         1.75839
H         36.44591        56.34046         0.80296
H         40.31104        14.90137         1.04397
H         38.20486        16.11872         0.83445
H         40.27767        58.52429         1.02329
H         38.17586        57.28983         1.26454
H         42.75467        14.81750         1.29383
H         42.81175        58.49322         0.76367
H         44.76996        16.05605         0.66244
H         44.88119        57.22060         0.61889
H         48.59332        18.20675         1.08279
H         46.50246        16.98281         1.08836
H         48.55121        55.10294        -0.00135
H         46.43472        56.28470         0.02405
H         50.19171        19.12609         0.47625
H         50.22489        54.20515         0.34210
H         52.28423        20.30998         0.25549
H         52.33144        53.00338         0.30815
H         56.01347        22.41414        -0.12055
H         53.91333        21.23928         0.07161
H         56.04013        50.81257        -0.18770
H         53.95572        52.02795         0.03203
H         57.65594        23.33091        -0.40774
H         57.54871        49.85495        -0.96904
H         59.72684        24.56299        -0.82702
H         60.96225        26.66247        -1.10538
H         61.06961        29.11212        -1.16939
H         60.96975        31.11477        -1.46629
H         60.93058        33.54613        -1.60464
H         60.97764        35.53787        -1.41666
H         60.86477        37.94772        -1.54752
H         60.78555        39.79844        -1.93681
H         60.78776        42.21508        -1.82404
H         60.71240        44.13562        -1.98196
H         60.88333        46.51129        -1.48159
H         59.67366        48.67187        -1.15899
