         651
 CSIRO Nanostructure Databank - Neutral Graphene Oxide Data Set
C          7.87018        31.56329         1.85682
C          7.50269        32.84351         1.66684
C          8.62869        27.28980        -0.67191
C          8.52391        28.77365        -0.72535
C          8.20322        29.44547         0.60940
C          9.05248        31.55088        -0.33748
C          8.43294        30.78283         0.74999
C          8.96560        33.00694        -0.29994
C          7.66900        33.51167         0.31066
C          8.58768        35.83186         0.00770
C          7.58103        35.00613         0.40458
C          8.49615        37.26434         0.11451
C         11.05082        23.04240        -0.73988
C         11.02200        24.51961        -0.46218
C          9.86483        25.21851        -0.50192
C         11.04308        27.46636        -0.07539
C          9.80891        26.67011        -0.45383
C         11.14867        28.85127        -0.72353
C          9.83910        29.42133        -1.20177
C         11.80558        31.85996        -1.33184
C          9.58542        30.86984        -1.40807
C         11.42696        33.34076        -1.07477
C         10.01200        33.79758        -0.64359
C         11.04850        35.97911         0.02303
C          9.85796        35.30671        -0.63279
C         10.93420        37.34965         0.27197
C          9.65910        38.04589         0.13546
C         10.81746        40.22148         0.31710
C          9.63328        39.46740         0.19042
C         10.84700        41.64513         0.31660
C         13.30104        18.77513         0.40337
C         13.19282        20.18562         0.75234
C         12.09176        21.00266         0.19850
C         13.35313        23.11500         0.37864
C         12.18080        22.34486        -0.01557
C         13.48697        24.47843         0.14274
C         12.32987        25.22223        -0.39930
C         13.54378        27.43349         0.15690
C         12.34094        26.71793        -0.32980
C         13.48767        28.84862         0.29935
C         12.36556        29.61694        -0.25614
C         13.52535        31.73393         0.36948
C         12.46555        31.01510        -0.28633
C         13.54597        33.13757         0.41018
C         12.42994        33.91403        -0.07995
C         13.30605        35.90466         1.07052
C         12.23815        35.23828         0.30898
C         13.27595        37.41491         1.11136
C         12.09036        38.12744         0.60116
C         13.32043        40.26034         0.52569
C         12.05471        39.50805         0.52329
C         13.31117        41.72536         0.58080
C         12.03522        42.40061         0.45091
C         13.18432        44.58953         0.50939
C         12.00746        43.82229         0.45991
C         13.18452        45.99274         0.41366
C         15.75683        14.56937         0.23650
C         15.76273        16.01797         0.13214
C         14.57766        16.69144         0.40322
C         15.76401        18.84578         0.69176
C         14.51342        18.11457         0.51721
C         15.76504        20.21206         1.00495
C         14.46306        20.90290         1.17115
C         15.70730        23.12408         1.28709
C         14.41447        22.40408         1.11291
C         15.83511        24.51992         0.84145
C         14.70399        25.22367         0.44432
C         15.86378        27.40242         0.88462
C         14.71828        26.69474         0.43078
C         15.79246        28.79246         1.14492
C         14.61935        29.51499         0.85403
C         15.93988        31.67012         1.10630
C         14.53783        30.99053         1.21598
C         15.90522        33.15145         1.38527
C         14.68977        33.84917         1.00563
C         15.78907        35.99986         1.54063
C         14.60127        35.21684         1.19585
C         15.67494        37.46871         1.68058
C         14.55192        38.12478         1.28090
C         15.78565        40.34079         1.22661
C         14.59329        39.54800         0.89335
C         15.76140        41.75762         1.01713
C         14.51855        42.41368         0.69826
C         15.74446        44.65882         0.70863
C         14.49057        43.87876         0.49590
C         15.59250        46.12317         1.12114
C         14.38341        46.76076         0.46470
C         15.67412        48.78057        -0.21424
C         14.43599        48.07556         0.03326
C         15.66112        50.08232        -0.71026
C         18.40568        10.57303        -1.09687
C         18.27057        11.99427        -1.02554
C         17.07439        12.46004        -0.41338
C         18.24887        14.98167        -1.18647
C         16.58650        13.77862        -0.54693
C         18.19607        16.25251        -0.57986
C         16.97364        16.81718        -0.08516
C         18.21480        18.92884         0.36501
C         16.98869        18.16950         0.35793
C         18.24750        20.26187         0.90255
C         17.00906        20.93629         1.18517
C         17.97537        23.09634         2.08425
C         16.93265        22.32876         1.50842
C         18.16027        24.45719         1.85558
C         17.13019        25.17382         1.07179
C         18.13030        27.30209         2.08715
C         17.13300        26.68407         1.12475
C         18.23861        28.77552         1.86554
C         16.95637        29.46631         1.80385
C         18.21336        31.67900         2.37410
C         16.97057        30.95688         1.95806
C         18.19740        33.05372         2.41425
C         17.00478        33.77921         1.96599
C         18.08459        36.02701         2.74506
C         17.03817        35.26068         1.98491
C         18.12399        37.52196         2.52511
C         16.88719        38.24541         2.02770
C         18.20764        40.35112         1.62729
C         16.93173        39.65540         1.60112
C         18.17210        41.82502         1.59379
C         16.96579        42.49585         1.27881
C         18.10792        44.67179         1.38474
C         16.97216        43.94249         1.15274
C         18.15975        46.13242         1.09599
C         16.89516        46.88414         0.88060
C         18.15901        48.66412        -0.30717
C         16.92644        48.10569         0.04227
C         18.18505        49.92448        -1.07277
C         16.85420        50.69301        -1.28019
C         18.14798        52.77624        -1.81746
C         16.95310        52.13537        -1.53479
C         18.11926        54.16412        -2.22586
C         20.88135         6.45184        -2.29705
C         20.85024         7.82378        -2.02598
C         19.50303         8.45452        -1.77034
C         20.71324        10.72386        -1.83874
C         19.54347         9.94954        -1.55922
C         20.65238        12.14232        -1.73271
C         19.41257        12.79788        -1.43197
C         20.65327        14.98558        -1.35622
C         19.43260        14.22921        -1.33010
C         20.62548        16.36992        -1.07785
C         19.42272        16.99723        -0.58443
C         20.52152        19.23342        -0.60851
C         19.39611        18.34207        -0.17132
C         20.66827        20.45779         0.25328
C         19.55214        20.92899         0.98104
C         20.83241        22.99608         1.49933
C         19.79950        22.07901         1.77422
C         20.79674        24.38709         2.03549
C         19.40806        25.15341         2.20814
C         20.67875        27.32992         2.14466
C         19.47034        26.61159         2.10757
C         20.70455        28.74716         2.37181
C         19.39465        29.41393         2.51576
C         20.66433        31.49465         3.42538
C         19.33566        30.86873         2.93797
C         20.58904        33.04713         3.47379
C         19.20851        33.73617         3.34771
C         20.60140        36.06910         3.20627
C         19.31505        35.29880         3.22416
C         20.59408        37.47024         2.99164
C         19.43137        38.18869         2.57336
C         20.60259        40.47255         2.49790
C         19.45582        39.59568         2.13532
C         20.60474        41.89726         2.06164
C         19.38484        42.54425         1.81434
C         20.68708        44.77198         1.70917
C         19.35219        44.01192         1.80337
C         20.67627        46.22700         1.23190
C         19.42287        46.56068         0.37741
C         20.62817        48.66872        -0.30361
C         19.41590        48.02680        -0.01990
C         20.61837        50.01018        -0.84290
C         19.44385        50.67694        -1.16473
C         20.59313        52.51826        -2.28303
C         19.42130        52.01900        -1.75776
C         20.75207        53.66183        -3.24789
C         19.18523        55.09449        -2.08517
C         20.66647        56.73260        -3.40864
C         19.39622        56.12967        -3.02886
C         20.64528        57.95887        -4.06955
C         23.21807         3.94733        -3.84144
C         22.03907         4.51421        -3.32838
C         23.34586         6.45668        -2.56597
C         22.05416         5.78007        -2.72077
C         23.31588         7.97742        -2.25400
C         22.00909         8.63262        -2.13219
C         23.14185        10.82524        -2.33016
C         21.95242        10.05545        -2.12481
C         23.08917        12.24551        -2.24097
C         21.86310        12.91254        -1.91963
C         23.07848        15.08046        -1.85470
C         21.86878        14.31934        -1.72521
C         23.06765        16.50428        -1.62871
C         21.83861        17.15460        -1.21665
C         22.99648        19.35253        -1.08095
C         21.80628        18.50854        -0.90759
C         23.15154        20.47515        -0.08420
C         21.86643        21.19983         0.22510
C         23.10011        23.39659         0.44229
C         21.90714        22.51384         0.72135
C         23.21354        24.44891         1.55398
C         21.95411        25.26057         1.74476
C         23.10220        27.50218         1.47906
C         21.93462        26.62094         1.91170
C         23.15271        28.86762         2.13837
C         21.92296        29.51602         2.40974
C         23.12741        31.64221         2.77119
C         21.92318        30.92717         2.75086
C         23.21839        32.97460         3.52773
C         21.88325        33.81623         3.52408
C         23.20663        36.07971         3.39708
C         21.88511        35.34140         3.46132
C         23.20744        37.57702         3.17399
C         21.86435        38.25988         3.10304
C         23.11850        40.36001         2.27664
C         21.86393        39.73366         2.77789
C         23.10331        41.81854         1.95204
C         21.84112        42.60975         2.01247
C         23.18347        44.57409         1.31027
C         21.90663        43.95507         1.64275
C         23.18143        45.85902         0.57075
C         21.88719        46.60099         0.40278
C         23.12480        48.50317        -0.50958
C         21.90544        47.98621        -0.11065
C         23.18969        49.86840        -1.07370
C         21.91027        50.62474        -1.20435
C         23.16720        52.39832        -2.48993
C         21.85599        51.75897        -2.16391
C         23.17263        53.89128        -2.57665
C         21.88941        54.59208        -2.87238
C         23.15499        56.53868        -3.73420
C         21.92919        56.01207        -3.31039
C         23.22227        57.93724        -4.19680
C         21.86813        58.69428        -4.37752
C         23.04379        60.27318        -5.84593
C         21.87367        59.81240        -5.32300
C         24.42936         4.63521        -3.83265
C         25.68639         6.71275        -3.34626
C         24.53250         5.92434        -3.25241
C         25.68186         8.10831        -3.07247
C         24.47880         8.76747        -2.65949
C         25.55714        10.95516        -2.91594
C         24.38661        10.16968        -2.63311
C         25.49766        12.34308        -2.81641
C         24.28782        13.01572        -2.43119
C         25.58852        15.15073        -2.13047
C         24.27360        14.41611        -2.21366
C         25.48340        16.65616        -2.14674
C         24.26163        17.26146        -1.80421
C         25.55296        19.38523        -1.24800
C         24.26382        18.71918        -1.56431
C         25.59028        20.66543        -0.68068
C         24.37912        21.33489        -0.27009
C         25.68268        23.19121         0.68365
C         24.39021        22.61275         0.24861
C         25.72384        24.47675         1.44997
C         24.46256        25.27959         1.36426
C         25.62821        27.41027         2.21054
C         24.45229        26.76158         1.47688
C         25.63469        28.90739         1.98135
C         24.38252        29.58754         2.16068
C         25.60894        31.72229         2.33192
C         24.36550        30.99853         2.42260
C         25.66574        33.13818         2.62718
C         24.49595        33.79092         3.22398
C         25.66586        36.03690         2.64338
C         24.50804        35.34460         3.20937
C         25.57415        37.43698         2.09099
C         24.40965        38.26286         2.61366
C         25.60137        40.27495         1.77518
C         24.39365        39.59581         2.32951
C         25.60524        41.76831         1.60131
C         24.41335        42.56416         2.12856
C         25.66054        44.73110         1.59880
C         24.37328        43.95017         1.54345
C         25.70796        46.00446         0.77918
C         24.44490        46.58292         0.33995
C         25.62428        48.54813        -0.54930
C         24.38704        47.84355        -0.24646
C         25.64989        49.64616        -1.37505
C         24.37719        50.20869        -1.96873
C         25.63154        52.32181        -2.48116
C         24.45395        51.71096        -2.19630
C         25.72310        53.77262        -2.78864
C         24.46420        54.59277        -2.83620
C         25.59857        56.27499        -4.24773
C         24.40027        55.81720        -3.66067
C         25.60190        57.51122        -5.12566
C         24.36511        58.38215        -5.00241
C         24.28513        59.56325        -5.68876
C         26.83152         8.89649        -3.35025
C         27.97815        11.06553        -3.50895
C         26.80047        10.29288        -3.27442
C         27.96514        12.46179        -3.48272
C         26.65948        13.13293        -3.27565
C         27.91581        15.37976        -3.21424
C         26.63461        14.60566        -3.07831
C         27.92243        16.81483        -2.79934
C         26.69024        17.41375        -2.19960
C         28.04195        19.25458        -1.20684
C         26.74054        18.70942        -1.65372
C         28.12601        20.64127        -0.74548
C         26.86786        21.47450        -0.77794
C         28.14063        23.26305         0.44529
C         26.94324        22.63802         0.17758
C         28.21344        24.61366         0.96071
C         27.01068        25.23142         1.57207
C         28.27688        27.47494         1.90328
C         26.97478        26.67461         1.99064
C         28.09383        28.94895         1.58359
C         26.83252        29.62471         1.81183
C         28.00458        31.84433         1.68572
C         26.78361        31.05534         1.92478
C         28.08450        33.23269         2.15342
C         26.86048        33.88751         2.50605
C         28.11911        36.04791         2.33995
C         26.86656        35.33853         2.53304
C         28.11419        37.49620         2.26524
C         26.89033        38.19034         2.15567
C         28.10423        40.30950         1.81488
C         26.89438        39.57609         1.92481
C         28.10617        41.74212         1.62991
C         26.89908        42.49418         1.57260
C         28.12174        44.60717         1.42701
C         26.90167        43.89363         1.41057
C         28.19724        46.13381         1.29076
C         26.90458        46.65657         0.62397
C         28.07138        48.29800        -0.87951
C         26.92096        48.08625         0.10543
C         28.08733        49.72096        -1.40875
C         26.90364        50.29696        -1.73829
C         28.14304        52.21859        -2.85699
C         26.84778        51.45492        -2.70883
C         28.07965        53.51392        -3.49191
C         26.90929        54.27137        -3.52226
C         26.79741        55.53891        -4.15914
C         29.15515        13.22968        -3.51789
C         30.40818        15.31054        -3.12297
C         29.19684        14.62662        -3.31321
C         30.49222        16.67891        -2.74154
C         29.25339        17.55838        -2.71238
C         30.58389        19.28425        -1.43935
C         29.32000        18.54358        -1.56890
C         30.57759        20.53482        -0.85332
C         29.34795        21.21995        -0.50032
C         30.57602        23.40949        -0.11132
C         29.44418        22.50836         0.30032
C         30.53497        24.75661         0.11379
C         29.36210        25.39470         0.74179
C         30.50561        27.57792         0.84418
C         29.36221        26.79147         1.06346
C         30.49731        28.95449         1.14670
C         29.28222        29.65279         1.39301
C         30.56962        31.85326         1.68124
C         29.31191        31.13308         1.37913
C         30.56790        33.18839         2.01188
C         29.31656        33.90886         2.16474
C         30.59845        36.04553         2.35948
C         29.32760        35.34306         2.28981
C         30.58373        37.51249         2.25854
C         29.34232        38.22135         2.18480
C         30.58733        40.35302         1.77064
C         29.35014        39.63326         1.95164
C         30.62272        41.76916         1.60252
C         29.34185        42.44720         1.66963
C         31.07632        44.79674         1.18035
C         29.23782        43.85216         1.78286
C         30.82187        45.95895         0.48869
C         29.53448        46.71419         0.61092
C         30.51200        48.16603        -1.36290
C         29.42749        47.85974        -0.36383
C         30.40432        49.34300        -2.11107
C         29.41575        50.38776        -1.66111
C         29.32583        51.62617        -2.51538
C         31.70254        17.30126        -2.46324
C         33.00891        19.31419        -1.86284
C         31.79779        18.64963        -1.93992
C         33.12866        20.63718        -1.23949
C         31.85182        21.27184        -0.71691
C         33.03595        23.54005        -0.90123
C         31.75560        22.76787        -0.73504
C         33.06788        24.89943        -0.34731
C         31.74719        25.56217        -0.18976
C         33.02326        27.54382         0.68800
C         31.73480        27.00485         0.23346
C         32.98178        28.83033         1.39638
C         31.78271        29.68014         1.12568
C         33.10323        31.70241         2.02366
C         31.84736        31.12970         1.47079
C         33.06956        33.01352         2.52865
C         31.90768        33.91978         2.04262
C         32.96775        36.27344         2.88397
C         31.78906        35.35868         2.52804
C         33.00681        37.37881         1.83842
C         31.76919        38.21014         2.00830
C         33.03692        40.25297         1.43855
C         31.80798        39.60666         1.76062
C         33.03597        41.58712         1.01508
C         31.85890        42.40562         1.17411
C         33.09319        44.23520        -0.04019
C         32.00360        43.77956         0.79751
C         33.07654        45.52118        -0.55528
C         32.01453        46.53710        -0.24677
C         31.64585        47.35245        -1.44105
C         34.31169        21.49433        -1.48157
C         35.48693        23.65389        -1.16018
C         34.31468        22.83157        -1.15379
C         35.52453        24.93381        -0.60192
C         34.26980        25.52561        -0.06763
C         35.36704        27.41674         1.22346
C         34.19956        26.82067         0.61905
C         35.50269        28.74667         1.52513
C         34.27250        29.49672         1.79865
C         35.54627        31.56308         2.32947
C         34.30728        30.95271         2.04873
C         35.54964        32.90185         2.78627
C         34.29002        33.46668         3.08031
C         35.46277        36.01209         2.41623
C         34.30023        35.62506         3.01588
C         35.47586        37.38161         1.87943
C         34.31341        38.10514         1.82713
C         35.52900        40.08288         0.92878
C         34.36203        39.59907         1.75453
C         35.44498        41.31915         0.33228
C         34.24527        42.12187         0.39258
C         34.21698        43.36057        -0.21951
C         36.75090        25.68404        -0.75872
C         38.02344        27.76889         0.02680
C         37.14306        26.68087         0.14291
C         38.02026        28.90830         0.90502
C         36.84645        29.35819         1.72702
C         38.04224        31.63428         2.00569
C         36.83428        30.81767         2.18999
C         38.13721        32.98472         2.69510
C         36.79654        33.73365         2.86479
C         37.95667        35.93033         2.07616
C         36.74042        35.26054         2.62023
C         37.92814        37.22284         1.59227
C         36.73615        38.01520         1.51367
C         36.72355        39.29019         0.95901
C         39.13003        29.75079         0.86360
C         40.42207        31.80266         1.39113
C         39.18020        31.04809         1.46571
C         40.45311        33.12742         1.68941
C         39.25053        33.82259         2.09346
C         39.17619        35.18127         1.94833
O         17.69002        47.03916         2.13804
O         22.45941        51.60818        -3.52838
O         16.94032        35.76119         0.60722
O         34.27718        34.57303         3.93730
O         32.77905        20.68071         0.22817
O         25.70926        23.25360         2.20826
O         21.14771        33.49155         4.74721
O         23.59686         6.97534        -1.22654
O         18.92688        22.37826         2.82562
O         23.42213        19.56524        -2.45722
O         19.98560        44.63422         2.98343
O         29.74153        48.13706         1.03282
O         33.40029        28.80401         2.79537
O         20.18142        24.58545         3.31107
O         28.68450        18.23386        -0.30777
O         13.54414        20.39516         2.18219
O         19.18605        39.73875         0.69312
O         10.73632        28.79386        -2.14401
O         17.47167        49.87264        -2.34265
O         24.64620        26.13754         0.17164
O         24.87090        34.57659         4.40027
O         28.52184        31.71956         0.29847
O         17.17353        38.16453         3.48283
O         36.48067        26.59853         1.38098
O         22.61970        38.18731         4.35995
O         25.34312        54.64774        -1.66332
O         22.74776        58.89551        -3.21445
O         31.98604        30.66977         0.05583
O         27.72334        16.43748        -4.21905
O         22.84791        50.90326        -0.09467
O         11.99967        31.52191        -2.50378
O         25.41001        40.90277         0.44696
O         17.07518        14.44412        -1.69736
O         22.97729        40.84253         0.87413
O         16.46663        30.15786         3.07422
O         12.90533        36.60518         2.29607
O         30.31592        44.53688         2.32110
O         17.68028        25.99857        -0.02973
O         14.23047        39.72918        -0.52567
O         37.07636        29.70044         3.12626
O         26.20421        14.07316        -4.34960
O         22.36754        54.43433        -1.48154
O         22.59379        35.78411         4.67780
O         27.17078        25.62632         3.00367
O         14.73339        23.00824         2.41312
O         20.19341        53.71019        -4.32959
O         32.09305        23.36375        -2.03112
O         18.28748        35.81116         4.15792
O         18.94782        29.83795         3.88048
O         31.57635        26.65175        -1.17501
O         15.34094        44.33057        -0.64685
O         36.89716        34.68284         3.96519
O         12.54740        26.05089        -1.61182
O         22.30548        45.66060        -0.63697
O         21.13773        40.41278         3.85925
O         22.79009        27.83553         0.09487
H         23.16344        27.10900        -0.46094
O         26.14557        14.83131        -0.80164
H         25.53984        15.19673        -0.12194
O         27.84075        47.43852        -2.02719
H         27.05045        47.76790        -2.50714
O         23.34537        23.70737         2.78833
H         23.33611        24.33137         3.54346
O         29.77780        22.07258         1.65985
H         29.06426        21.47680         1.97291
O         22.84739        24.12367        -0.78675
H         22.82189        23.48424        -1.52936
O         11.22910        22.86455        -2.16168
H         11.85071        23.55215        -2.48083
O          6.56354        33.06145        -0.52640
H          6.64182        33.52384        -1.38725
O         34.65785        40.04467         3.13132
H         34.77297        41.01858         3.10505
O         23.38974        32.52190         4.89056
H         23.63657        33.31367         5.42320
O         25.26695        37.25192         0.66072
H         25.31075        38.13315         0.22782
O         26.62862        50.83783        -4.02032
H         25.80486        50.28886        -3.96080
O         16.40627        31.50357        -0.26170
H         15.84228        32.04932        -0.85003
O         19.45719        45.76053        -0.82268
H         20.33624        45.84919        -1.25386
O         26.78092        58.29051        -4.89588
H         26.74620        58.63344        -3.97931
O         20.08424        19.77409        -1.92082
H         20.12302        19.03911        -2.56997
O         19.97092        54.95571        -0.99386
H         20.68032        55.63019        -0.97558
O         29.32820        18.41168        -3.88908
H         28.99632        17.87084        -4.64380
O         17.52356        27.11328         3.40909
H         17.91735        27.77520         4.02087
O         38.57769        32.67055         4.05009
H         38.30312        33.42963         4.61455
O         25.27717        27.25178         3.61399
H         25.87584        26.56369         3.99098
O          9.78970        35.77225        -2.00957
H         10.53391        35.32599        -2.48740
O         32.90913        36.73060         0.53564
H         32.87490        37.42747        -0.15187
O         32.67233        36.86620         4.17350
H         32.95846        36.23146         4.86481
O         28.83233        27.51025         3.25916
H         28.70079        26.60931         3.63750
O          7.44982        29.09541        -1.63290
H          7.22216        30.04301        -1.52342
O         20.82569        31.03422         4.78018
H         21.56497        31.55979         5.17420
O         18.58752        33.46862         4.62220
H         19.20790        33.76876         5.32353
O         11.71073        33.98555        -2.34669
H         11.82959        33.24770        -2.99985
O         32.26344        34.09927         0.62908
H         32.03577        33.27450         0.14656
O         10.97450        27.71115         1.35481
H         10.81211        26.86061         1.81323
O         15.31784        46.11359         2.54243
H         16.12303        46.46456         2.99413
O         24.20042        49.57195        -3.26795
H         23.46968        50.06414        -3.72486
O         20.69909        47.08351         2.38147
H         20.13271        46.66438         3.06989
O         28.17024        46.66756         2.63571
H         28.34640        47.63594         2.54914
O         23.44771        19.74827         1.16351
H         23.57694        20.41059         1.87702
O         18.85385         7.80521        -0.66563
H         19.44632         7.86215         0.11183
O         24.61008        42.68673         3.56419
H         25.05209        43.55457         3.73809
O         26.83072        22.09542        -2.11544
H         26.66962        21.38608        -2.77401
O         14.05461        31.10466         2.57204
H         14.71612        30.65603         3.15648
O         29.89163        50.87742        -0.35566
H         29.81546        50.14736         0.29840
O         25.73448        45.17573         3.00865
H         26.57521        45.69313         3.11421
O          9.60561        31.36562        -2.66440
H         10.09987        30.73752        -3.23676
O         27.15564        48.94634         1.25514
H         26.32047        49.00941         1.76471
O         32.61339        47.49323         0.72611
H         31.86559        48.02407         1.08868
H          7.68084        31.05748         2.81543
H          7.02952        33.41630         2.47862
H          7.72767        26.70509        -0.90860
H          7.61193        28.90100         1.35920
H          6.64764        35.43224         0.80674
H          7.51191        37.73594         0.25935
H         10.07403        22.56802        -0.46919
H          8.91130        24.68474        -0.63796
H          8.66761        39.98721         0.10121
H          9.89662        42.18748         0.19943
H         12.40390        18.22816         0.07765
H         11.19340        20.46774        -0.14761
H         11.03503        44.33448         0.40573
H         12.23562        46.50912         0.19892
H         15.09112        14.11216         0.98372
H         13.64455        16.11831         0.50342
H         13.50786        48.55427        -0.31657
H         14.72524        50.66037        -0.69256
H         17.54207         9.95150        -0.81775
H         16.50639        11.73997         0.19555
H         16.02689        52.72744        -1.48662
H         17.26462        54.47560        -2.84594
H         19.92930         5.90020        -2.29600
H         18.85015         8.25819        -2.66732
H         18.54481        56.36133        -3.68838
H         19.67873        58.41439        -4.33371
H         23.17025         2.95373        -4.30857
H         21.08795         3.97066        -3.42142
H         23.03292        61.14408        -6.51667
H         20.91350        60.26561        -5.61007
H         25.31550         4.19047        -4.30796
H         26.59537         6.27302        -3.78434
H         25.66829        57.15853        -6.19449
H         25.16207        59.91650        -6.25016
H         27.76204         8.39315        -3.65225
H         28.92952        10.53689        -3.67265
H         29.00630        53.94192        -3.90502
H         27.68411        55.94851        -4.66606
H         30.11160        12.69227        -3.61396
H         31.34588        14.73579        -3.18758
H         31.20311        49.60380        -2.82212
H         30.26754        52.17463        -2.67598
H         32.63915        16.73854        -2.60098
H         33.90397        18.87135        -2.32604
H         33.93634        45.86708        -1.14862
H         32.40946        47.55947        -2.20585
H         35.24922        21.00541        -1.78851
H         36.42194        23.22104        -1.54696
H         36.31841        41.73897        -0.19023
H         35.09491        43.72332        -0.77347
H         37.39231        25.43669        -1.61882
H         38.75670        27.77263        -0.79492
H         38.86526        37.65858         1.21167
H         37.64885        39.70802         0.53347
H         40.01944        29.41617         0.30792
H         41.32383        31.28855         1.02896
H         41.37011        33.71528         1.53279
H         40.05666        35.71947         1.56154
