         324
 CSIRO Nanostructure Databank - Neutral Graphene Oxide Data Set
C          1.40757         3.46777         2.02403
C          0.35418         4.21936         2.44335
C          1.31113         6.29403         1.50491
C          0.24841         5.59927         2.09835
C          1.27279         7.72689         1.32488
C          0.21343         8.51825         1.77194
C          1.28302        10.65007         1.16215
C          0.19628         9.91876         1.66118
C          1.33194        12.07007         1.17477
C          0.18278        12.86532         1.37612
C          1.41401        14.95748         0.95384
C          0.22186        14.25052         1.31135
C          1.38219        16.39767         0.68896
C          0.17627        17.05011         0.41290
C          0.86123        19.43721         0.14992
C         -0.00052        18.38078        -0.07277
C          0.89005        20.70838        -0.57703
C         -0.16682        21.12584        -1.42365
C          1.12662        23.04527        -2.21824
C         -0.07640        22.31234        -2.14842
C          1.31424        25.49937        -2.73985
C          0.20766        26.34705        -2.73590
C          1.60987        28.36012        -2.49144
C          0.35491        27.73967        -2.55238
C          1.70782        29.76953        -2.12797
C          3.72742         3.37265         1.09526
C          2.41002         4.06630         1.08203
C          3.73153         6.20825         0.93381
C          2.52154         5.56523         1.19451
C          3.73038         7.63692         0.54871
C          2.40964         8.38878         0.65093
C          3.75585        10.57636         0.40751
C          2.42262         9.89038         0.58467
C          3.83203        12.02587         0.64932
C          2.66663        12.77771         1.23351
C          3.81372        14.86008         0.37680
C          2.61026        14.22847         0.82080
C          3.80418        16.25390         0.14725
C          2.65836        17.05146         0.45192
C          3.90782        19.14217        -0.10536
C          2.80062        18.45506         0.48664
C          3.99496        20.51271        -0.20435
C          2.04411        21.52775        -0.58133
C          3.62164        23.05359        -1.82314
C          2.27925        22.54332        -1.54384
C          3.78966        25.28658        -2.48625
C          2.61907        26.08084        -2.62003
C          4.08167        27.94149        -2.78531
C          2.75376        27.50238        -2.60978
C          4.18439        29.99934        -1.93604
C          2.81821        30.48676        -1.77832
C          6.11899         3.30501         0.67598
C          4.92154         4.04664         0.87673
C          6.20911         6.17608         0.65319
C          4.96773         5.49426         0.81774
C          6.23563         7.65497         0.74411
C          5.01770         8.37784         0.54917
C          6.23672        10.50951         0.46711
C          5.01092         9.78775         0.45083
C          6.25706        11.93570         0.25563
C          5.03021        12.68706         0.35604
C          6.24978        14.77974        -0.15732
C          5.02844        14.11461         0.19399
C          6.25980        16.15346        -0.45529
C          4.98339        16.86968        -0.47773
C          6.24719        19.04514        -1.12396
C          4.96039        18.33996        -0.77198
C          6.28492        20.51950        -1.06239
C          4.92966        21.12444        -1.22368
C          6.11871        23.46657        -1.28787
C          4.86526        22.61856        -1.42299
C          6.28532        24.94473        -1.73784
C          5.08199        25.75839        -2.18952
C          6.80477        28.09639        -1.44097
C          5.18209        27.12509        -2.56183
C          6.44482        29.37492        -0.85623
C          5.19970        30.13568        -1.02884
C          8.47976         3.12404         0.05038
C          7.33266         3.93855         0.43651
C          8.65267         6.04251         0.12400
C          7.37904         5.38966         0.41039
C          8.58280         7.86666         1.80951
C          7.42623         8.42129         1.01029
C          8.67298        10.61984         0.94900
C          7.43373         9.81170         0.78466
C          8.74965        11.95214         0.29197
C          7.48911        12.62855         0.04915
C          8.68208        14.71015        -0.63114
C          7.46397        14.01297        -0.22944
C          8.73533        16.15209        -0.68186
C          7.52890        16.95004        -0.32443
C          8.75367        19.12729        -0.85436
C          7.53776        18.30614        -1.01179
C          8.71548        20.51177        -0.82411
C          7.44311        21.23117        -0.93476
C          8.68262        23.44577        -0.68704
C          7.39210        22.72700        -0.87002
C          8.64553        24.84744        -0.51404
C          7.55998        25.66769        -1.15608
C          8.50011        27.64005         0.20106
C          7.58743        27.13723        -0.78678
C          8.44584        29.05417         0.53848
C          7.29616        29.81370         0.14614
C         10.98438         3.28511        -0.22593
C          9.74912         3.52759         0.43228
C         11.10355         6.28562         0.85581
C          9.78781         5.64730         0.78756
C         11.14145         7.74714         0.94815
C         10.02500         8.47697         1.71677
C         11.23473        10.59412         0.93971
C          9.96404         9.94774         1.33128
C         11.23116        11.99773         0.60550
C          9.97454        12.61598         0.21191
C         11.22711        14.79747        -0.20764
C         10.03389        13.94758        -0.43255
C         11.22846        16.14946        -0.34938
C         10.01141        16.86506        -0.80573
C         11.23649        19.11760        -0.39932
C         10.02722        18.38418        -0.82365
C         11.15114        20.56011        -0.32213
C          9.93618        21.25526        -0.56433
C         11.02397        23.34640         0.08863
C          9.87605        22.68032        -0.40530
C         10.86260        24.70625         0.61888
C          9.69915        25.50459         0.18831
C         10.70901        27.47474         1.38388
C          9.60892        26.85290         0.60777
C         10.68601        29.01016         1.62233
C          9.50327        29.71581         1.15055
C         13.20419         3.61403        -1.05624
C         12.13883         4.11070        -0.28728
C         13.46943         6.30867        -0.09623
C         12.31375         5.47419         0.31472
C         13.50989         7.66477         0.24941
C         12.36045         8.39159         0.77029
C         13.68664        10.56606         0.86226
C         12.40182         9.85032         0.85905
C         13.71129        12.01581         0.64228
C         12.46048        12.66783         0.44586
C         13.78427        14.83321         0.07782
C         12.50025        14.06202        -0.01956
C         13.71414        16.29733         0.18470
C         12.36231        16.95745         0.24381
C         13.60903        19.13134         0.24679
C         12.39877        18.42847        -0.09612
C         13.56917        20.58756         0.23566
C         12.32817        21.27303         0.04275
C         13.45540        23.38638         0.63656
C         12.26069        22.67565         0.26502
C         13.40782        24.75303         1.00514
C         12.09683        25.40515         1.17203
C         13.19574        27.57696         1.62348
C         12.05287        26.86723         1.34564
C         13.18113        29.02843         1.76194
C         11.96883        29.70499         1.70941
C         15.46349         3.72994        -2.02719
C         14.41622         4.32192        -1.28089
C         15.77294         6.33811        -1.07437
C         14.55315         5.67163        -0.81991
C         15.88386         7.76988        -0.74777
C         14.72264         8.44998        -0.10021
C         16.13176        10.56683         0.10349
C         14.95928         9.79122         0.52066
C         16.16447        11.94787         0.26292
C         14.95044        12.68619         0.50480
C         16.19877        14.83089         0.70081
C         15.01961        14.12887         0.48034
C         16.10527        16.29521         0.80659
C         14.84264        17.00610         0.53221
C         15.88885        19.29039         1.24539
C         14.75929        18.45064         0.65237
C         16.04128        20.55507         0.38092
C         14.74561        21.31929         0.41313
C         15.92203        23.45430         0.85873
C         14.71619        22.72319         0.61532
C         15.86066        24.83647         1.15661
C         14.58441        25.46434         1.27484
C         15.76860        27.65925         1.82683
C         14.48833        26.85855         1.74936
C         15.67609        29.13483         1.73899
C         14.42034        29.75125         1.78882
C         17.66187         3.86466        -3.18461
C         16.67344         4.39971        -2.26083
C         18.15121         6.38928        -1.87076
C         16.85048         5.70295        -1.71755
C         18.28810         7.81807        -1.53878
C         17.24559         8.38993        -0.67860
C         18.47567        10.62491        -0.85222
C         17.34336         9.85387        -0.31764
C         18.47808        12.04470        -0.60116
C         17.38463        12.68197        -0.01621
C         18.85926        14.73356         0.43994
C         17.48795        14.06291         0.56049
C         19.03586        16.13810         0.83986
C         17.11698        17.06586         1.32069
C         18.51172        19.20319         0.99240
C         17.20250        18.53225         1.32484
C         18.48863        20.69548         0.81101
C         17.25908        21.37111         0.72562
C         18.40867        23.51347         1.01658
C         17.19811        22.77366         0.85302
C         18.35434        24.94020         1.15638
C         17.08396        25.59842         1.28932
C         18.22562        27.77448         1.42480
C         17.04284        26.99355         1.48527
C         18.13826        29.21215         1.51286
C         16.87722        29.85781         1.62103
C         18.77939         4.54665        -3.53806
C         20.15261         6.72243        -3.39959
C         19.17528         5.78129        -2.83554
C         20.29452         7.98396        -2.91455
C         19.38821         8.56954        -1.93666
C         20.64215        10.77121        -1.97814
C         19.49576         9.98157        -1.56510
C         20.71084        12.11023        -1.78327
C         19.60678        12.84697        -1.14702
C         20.96086        15.13570        -0.90225
C         19.78625        14.26245        -0.64401
C         20.92650        16.45603        -0.58295
C         19.88659        17.03713         0.26124
C         20.96851        19.28838         0.88520
C         19.75046        18.56395         0.33896
C         20.92538        20.62071         1.11528
C         19.69851        21.40027         0.96575
C         20.85273        23.62026         1.09741
C         19.66531        22.83139         1.02095
C         20.79779        24.99294         1.16193
C         19.55697        25.69569         1.20169
C         20.65616        27.94952         1.23119
C         19.49774        27.13853         1.27997
C         20.56443        29.33961         1.31076
C         19.32895        29.97087         1.44557
O         10.37364        28.03140         2.68095
O         18.22921        16.48179         1.92708
O          9.19925        10.69829         2.32645
O         17.70913         8.77568         0.64875
O          6.41138        27.75901        -2.74044
O         11.15532        24.73078         2.07108
O          7.44285        25.24532        -2.56181
O         18.13926        18.95723         2.38408
O          6.88975        18.44367        -2.30465
O          4.37807        29.27042        -3.12466
O          1.09780        24.14840        -3.07794
O          2.82838        10.34518        -0.74495
O          1.84566        19.23845         1.15864
O          9.42889        14.03030        -1.72242
O          8.34581         7.12333         2.75069
O          9.73375         4.45189         1.50908
O         15.15097        27.09500         3.03936
O          3.04456        21.33445         0.39868
O         10.23651        17.61195        -2.07825
O         18.52172        13.93777         1.62041
O         19.29090         5.59855        -1.38745
O         14.57803        10.00818         1.89839
O         12.02615         5.58047         1.73782
O          2.84522         7.80820        -0.61717
O          6.45491        23.28652         0.14541
O          4.51454        17.45005        -1.83176
O         13.33455        14.27093        -1.22823
O          3.58326        23.98625        -2.84234
O         14.94213         8.57251        -1.56363
O         19.07280        14.00013        -1.91641
O          2.97118        12.80509         2.70614
H          2.30208        13.39116         3.12226
O         16.24163        20.05807        -0.97516
H         16.41087        20.82395        -1.56230
O         15.50050        19.64366         2.58602
H         16.32389        19.71275         3.12043
O         10.50523         8.43223         3.07811
H         10.03302         7.68691         3.52116
O          4.40571        20.60935        -2.51186
H          4.84215        19.75698        -2.73564
O          8.71519         7.12214        -0.74507
H          7.84996         7.22676        -1.19093
O         12.01559        16.95319         1.69307
H         12.66073        17.53658         2.15071
O          7.64735        17.33665         1.12102
H          7.69585        16.51019         1.64847
O          1.86253         3.83093        -0.29203
H          2.34652         4.43053        -0.90055
O         19.60020        18.98029        -1.05317
H         20.36574        18.63981        -1.56153
H          1.49379         2.40494         2.29113
H         -0.43440         3.77376         3.06714
H         -0.66621         6.13244         2.38918
H         -0.64945         8.04292         2.25736
H         -0.67426        10.45293         2.06581
H         -0.79426        12.37946         1.51223
H         -0.71254        14.80612         1.46602
H         -0.73005        16.42696         0.37609
H         -0.89683        18.55974        -0.68636
H         -1.09589        20.54083        -1.46486
H         -0.94062        22.66154        -2.72833
H         -0.79955        25.92229        -2.84019
H         -0.55190        28.35664        -2.46839
H          0.73407        30.26331        -1.97278
H          3.73164         2.27220         1.11249
H          2.66958        31.47905        -1.32283
H          6.07041         2.20713         0.68864
H          4.99195        30.81050        -0.18197
H          8.32252         2.26370        -0.61613
H          7.12805        30.79315         0.61676
H         11.00629         2.40225        -0.88554
H          9.48149        30.81429         1.21066
H         13.11275         2.60359        -1.48296
H         11.96532        30.80318         1.63840
H         15.31518         2.72198        -2.44259
H         14.37253        30.85080         1.78714
H         17.42044         2.91619        -3.68768
H         16.84306        30.95764         1.60910
H         19.43229         4.16734        -4.33856
H         20.77663         6.38596        -4.24129
H         21.06586         8.62472        -3.36323
H         21.49393        10.26581        -2.45297
H         21.59480        12.67278        -2.11526
H         21.78712        14.74019        -1.50942
H         21.75996        17.10587        -0.89332
H         21.90817        18.73227         1.02116
H         21.83780        21.13527         1.45094
H         21.83379        23.12597         1.08708
H         21.74100        25.55411         1.20509
H         21.64827        27.49202         1.12089
H         21.48119        29.94403         1.26412
H         19.27257        31.06714         1.50483
