         260
 CSIRO Nanostructure Databank - Neutral Graphene Oxide Data Set
C         30.47477        31.54248         1.68047
C         30.41570        32.79563         1.60413
C         30.37771        36.10324         1.13340
C         30.55909        37.31221         1.31206
C         30.89372        40.75310         1.20637
C         30.88728        41.98197         0.98854
C         32.78696        28.62654         0.91714
C         31.73148        29.26350         1.21536
C         32.75190        31.42626         1.02867
C         31.51945        30.63132         1.43836
C         32.64148        32.89963         0.67083
C         31.29768        33.63127         0.76422
C         32.48724        35.85560        -0.07013
C         31.24243        35.11060         0.49435
C         32.51555        37.39811        -0.12218
C         31.41746        38.23522         0.54054
C         33.04832        40.06951         0.72018
C         31.73859        39.63460         0.90968
C         33.15002        42.27832         0.37733
C         31.84631        42.86413         0.37948
C         32.91084        44.44036        -1.00329
C         31.86911        44.04466        -0.39784
C         35.34282        27.10636        -0.20827
C         35.21668        28.59541        -0.29496
C         33.87934        29.20271         0.12171
C         35.18776        31.38883         0.31794
C         33.89066        30.70188         0.34459
C         35.14468        32.82100        -0.00283
C         33.80950        33.55299        -0.03655
C         35.09593        35.76159        -0.38008
C         33.76071        35.06128        -0.21876
C         35.09574        37.23685        -0.59832
C         33.80393        38.08233        -0.69272
C         35.14896        40.18630        -0.61308
C         34.04225        39.48462        -0.12084
C         35.41778        41.70232        -0.48653
C         34.21856        42.62803        -0.47520
C         35.40493        44.40973        -1.85739
C         34.18294        43.86044        -1.16847
C         35.60476        45.89465        -1.79656
C         37.70823        26.78182         0.14154
C         36.33248        26.37716        -0.15239
C         37.68792        28.22159         0.63640
C         36.44513        29.12474         0.57688
C         37.69189        31.46822         0.53872
C         36.40489        30.71704         0.91818
C         37.67304        32.88565        -0.07365
C         36.38351        33.59698         0.41752
C         37.63651        35.92669         0.05480
C         36.36010        35.12405         0.14470
C         37.67135        37.41271        -0.28500
C         36.35754        38.01928        -0.65208
C         38.18735        40.35026        -1.15311
C         36.19233        39.31280        -1.11615
C         38.06067        41.77424        -0.95609
C         36.71882        42.41464        -0.79950
C         37.88707        44.58273        -1.11742
C         36.73057        43.87007        -1.19401
C         38.04358        46.06333        -1.53068
C         36.63876        46.54723        -1.67037
C         40.25916        24.56920        -1.54272
C         39.15469        25.07403        -1.29379
C         40.14001        27.25178        -0.80559
C         38.96273        26.27316        -0.45894
C         40.20502        28.44287         0.16414
C         39.05072        28.77917         0.82896
C         40.17729        31.56664         0.53225
C         38.88349        30.97995         0.93782
C         40.16733        33.04082         0.78411
C         38.88377        33.72031         0.43042
C         40.24964        35.93154         0.01685
C         38.94015        35.17493         0.00189
C         40.29075        37.41071        -0.02845
C         39.01138        38.14363        -0.26299
C         40.22775        40.33851         0.16002
C         39.17324        39.58296        -0.62412
C         40.46614        41.73011        -0.47274
C         39.16952        42.47555        -0.61491
C         40.11621        44.67203         0.16643
C         39.25357        43.95123        -0.86967
C         40.11212        46.18542         0.15152
C         38.98202        46.83727        -0.61182
C         40.13765        48.98995        -0.17925
C         39.23738        48.17907        -0.59482
C         42.88173        24.69937        -1.50040
C         41.54448        25.19934        -1.40114
C         42.70997        27.34745        -0.80857
C         41.48295        26.53416        -0.97665
C         42.66338        28.68557        -0.16835
C         41.44885        29.24342         0.22210
C         42.71520        31.49756         0.45995
C         41.41384        30.74830         0.34018
C         42.74063        32.98155         0.67477
C         41.46775        33.78140         0.82860
C         42.79044        35.93300         0.37759
C         41.48191        35.23752         0.51455
C         42.71531        37.38618         0.83122
C         41.47964        38.11871         0.25240
C         42.66451        40.26224         0.82160
C         41.49662        39.52841         0.32957
C         42.67349        41.80519         0.76443
C         41.49639        42.52071         0.28341
C         42.64760        44.76998         0.83436
C         41.38302        43.95270         0.53880
C         42.61721        46.25296         0.61465
C         41.38397        46.94697         0.41205
C         42.64524        48.96819         0.41001
C         41.37444        48.39193         0.22172
C         43.94058        25.21308        -1.08991
C         45.24680        27.30270        -0.25754
C         44.12908        26.64636        -0.91580
C         45.19930        28.71843        -0.03460
C         43.93747        29.41575        -0.10049
C         45.18451        31.53939        -0.08679
C         43.95966        30.81607         0.01587
C         45.14781        33.01553        -0.26635
C         43.81495        33.74345        -0.09939
C         45.23859        35.83604         0.71128
C         43.93705        35.21101         0.31453
C         45.28138        37.33849         0.87311
C         44.04317        38.12925         0.44485
C         45.27684        40.32605         1.10252
C         43.99254        39.55235         0.99371
C         45.28966        41.77743         0.70787
C         43.97740        42.53834         0.61430
C         45.22317        44.79365         1.04865
C         43.96499        44.03927         0.63925
C         45.18246        46.19245         0.33002
C         43.88508        46.92153         0.59728
C         43.71949        48.30874         0.49691
C         47.50712        27.29581         0.66246
C         46.51606        26.79890         0.07811
C         47.62012        28.74371         0.80794
C         46.38671        29.45118         0.32693
C         47.72092        31.55103        -0.05000
C         46.40286        30.85523         0.16924
C         47.74423        33.01772        -0.39994
C         46.45386        33.78133        -0.23464
C         47.84524        36.09545        -0.20840
C         46.50835        35.02169         0.61037
C         47.89915        37.35088         0.65153
C         46.60386        38.08462         0.94492
C         47.90746        40.35229         0.92926
C         46.60590        39.58197         1.07425
C         47.89414        41.85203         0.94613
C         46.57414        42.55214         0.73472
C         47.75243        44.70922         0.82774
C         46.54477        44.03390         0.84110
C         47.52012        46.13537         0.82398
C         46.48954        46.82869         0.80912
C         50.28596        28.90489         0.79735
C         48.96657        29.48601         0.88365
C         50.25825        31.48058        -0.27024
C         49.03142        31.00471         0.53533
C         50.28985        32.95138        -0.62110
C         49.02550        33.84432        -0.74499
C         50.32819        35.91845        -0.17226
C         49.13285        35.26167        -0.18544
C         50.42904        37.39499         0.12879
C         49.17909        38.12158         0.56816
C         50.39638        40.42563         0.37992
C         49.06493        39.62011         0.22245
C         50.24209        41.88835        -0.13326
C         49.08030        42.63996         0.50290
C         50.26403        44.66073         0.20851
C         49.00689        44.02185         0.55005
C         51.32555        29.42392         0.30051
C         52.65047        31.52921        -0.56974
C         51.59396        30.71856        -0.12691
C         52.67867        32.72250        -0.97560
C         51.62709        33.68040        -0.54882
C         52.67091        36.10174        -0.81887
C         51.63259        35.16164        -0.38869
C         52.58999        37.32603        -0.98182
C         51.65615        38.21476        -0.26607
C         52.50273        40.60515        -0.67364
C         51.57189        39.67990        -0.40079
C         52.67783        41.90320        -0.59440
C         51.63648        42.68550        -0.18916
C         51.33416        44.06242        -0.03539
O         38.65731        26.00575         0.91843
O         47.31915        36.30462        -1.37629
O         39.68248        35.35196        -1.23571
O         42.39721        41.09587         1.99970
O         37.18274        39.81665        -1.94820
O         35.20688        36.27025        -1.74039
O         32.87322        35.33357        -1.35913
O         43.97762        43.34173        -0.61962
O         33.41731        41.28092         1.33119
O         36.75079        28.36971         1.75888
O         48.16875        41.08722         2.16083
O         34.38715        33.01273        -1.25667
O         46.70076        38.72579         2.24579
O         33.11721        32.44863         1.98750
O         31.35144        37.91749        -0.85866
O         51.49057        37.74961         1.10417
O         41.84516        44.29064         1.91614
O         48.16443        29.25716         2.05667
O         50.15978        31.91017        -1.64527
O         36.91253        35.78947         1.31914
O         40.00998        44.00876        -2.08795
O         44.54402        39.90077         2.27897
O         38.17137        38.07565         0.96971
O         43.56100        27.40276        -2.00710
O         46.03160        41.99331        -0.53188
O         45.12262        36.47516         2.02592
O         45.72782        33.68591        -1.47246
O         51.91061        34.27621         0.73635
O         48.76982        37.48423         1.81233
O         39.52270        45.38716         1.26225
O         42.55709        37.39993         2.19957
O         36.29677        42.13445         0.60303
O         41.43309        34.75521         1.90517
O         40.61829        31.26712        -0.83502
O         33.38456        30.09347        -0.92174
O         39.21803        33.45265         1.81526
O         43.03169        32.11506         1.78563
O         30.71583        34.15243        -0.44072
O         47.67753        31.98125        -1.43710
O         39.01967        29.84071         1.74754
O         33.56843        38.28599        -2.09237
H         33.53426        37.39807        -2.51611
O         45.07568        45.02877         2.45743
H         45.82117        45.58995         2.76299
O         49.19372        31.67950         1.80368
H         48.75334        31.14397         2.50301
O         48.92553        34.11288        -2.15436
H         48.67726        33.27211        -2.60203
O         49.89038        41.80839        -1.54128
H         49.79146        42.72046        -1.89054
O         35.52602        29.00776        -1.61027
H         34.71605        29.38947        -2.02551
O         39.72478        40.59112         1.48916
H         39.40126        39.74458         1.86972
O         47.02253        34.71876         1.85845
H         46.69023        35.39997         2.49669
O         44.10350        38.29799        -0.98406
H         44.31135        37.44388        -1.41892
O         43.20138        33.76288        -1.42319
H         43.91358        33.95974        -2.07553
O         38.72802        46.13428        -2.77358
H         39.34951        45.32892        -2.80636
O         36.33101        33.44060         1.84284
H         37.01323        34.01741         2.25649
O         39.75888        27.78246        -2.09607
H         40.50857        28.29739        -2.46254
O         45.26228        45.98592        -1.06412
H         45.17106        46.84205        -1.53085
O         41.06904        41.61677        -1.78305
H         40.83818        42.49530        -2.23069
O         36.23585        30.76817         2.33879
H         36.76997        30.03856         2.73368
O         48.69264        39.52564        -1.16567
H         48.88573        40.38153        -1.62454
O         50.76520        40.46054         1.73898
H         50.89904        39.53929         2.06198
O         37.66362        32.86647        -1.49734
H         38.47182        32.42153        -1.82898
O         35.40715        43.96798        -3.20466
H         36.13758        44.41279        -3.68368
