         404
 CSIRO Nanostructure Databank - Neutral Graphene Oxide Data Set
C          1.18534         4.16949         2.92558
C          0.06468         4.95792         3.09441
C          1.28971         6.97345         2.43350
C          0.10888         6.34516         2.84812
C          1.35254         8.41067         2.17122
C          0.14148         9.20908         2.21641
C          1.44329        11.35271         2.13104
C          0.16875        10.55513         2.16261
C          1.28770        12.59492         1.23401
C          0.16320        12.94815         0.45173
C          1.26754        15.02272        -0.28695
C          0.12796        14.17572        -0.20277
C          1.24987        16.32153        -0.91212
C         -0.00012        17.03404        -1.02409
C          1.12302        19.04855        -1.86198
C         -0.04763        18.36492        -1.29343
C          1.18453        20.52872        -1.96786
C          0.07041        21.29136        -1.55364
C          1.10893        23.36536        -2.23087
C          0.05162        22.68147        -1.60371
C          1.21244        24.83924        -2.18690
C          0.01399        25.59622        -2.18718
C          1.18651        27.64165        -1.54359
C          0.00981        26.95639        -1.93416
C          1.14761        29.05065        -1.19476
C         -0.03537        29.83690        -1.32666
C          1.08491        31.81165        -0.40228
C         -0.06955        31.15092        -0.92128
C          1.05790        33.18811        -0.03415
C         -0.18663        33.91986         0.10899
C          1.03262        36.08399         0.22667
C         -0.21774        35.25464         0.33158
C          0.99241        37.37211         1.00586
C          3.58243         3.97016         2.35803
C          2.41555         4.75340         2.50129
C          3.68508         6.75482         1.83522
C          2.46476         6.16839         2.27000
C          3.84948         8.25690         1.88875
C          2.56103         9.04934         1.88177
C          3.91298        11.03065         1.38028
C          2.66814        10.47951         1.76786
C          4.16940        12.43776         1.33037
C          2.34001        13.50443         1.21742
C          3.75429        15.21273         0.03606
C          2.48162        14.58016         0.30992
C          3.70073        16.45316        -0.65334
C          2.46968        16.99637        -1.12345
C          3.73149        19.04653        -2.13476
C          2.45238        18.28386        -1.85561
C          3.67537        20.48931        -2.62721
C          2.32659        21.18435        -2.50331
C          3.93840        23.68267        -2.67463
C          2.13103        22.55958        -2.77439
C          3.70842        24.81700        -1.93531
C          2.43362        25.52001        -1.93264
C          3.58834        27.50970        -0.95603
C          2.41395        26.89611        -1.49460
C          3.46591        28.85097        -0.35704
C          2.29479        29.68638        -0.66097
C          3.51584        31.71888         0.13239
C          2.29945        31.05614        -0.29192
C          3.50618        33.13967         0.33319
C          2.28049        33.86770         0.26323
C          3.45013        35.94067         0.87579
C          2.27481        35.27499         0.51421
C          3.42790        37.34080         1.25809
C          2.12495        37.97177         1.42371
C          6.00257         3.80919         1.81201
C          4.78699         4.54441         1.90135
C          5.97667         6.48877         0.89796
C          4.78933         5.94685         1.58872
C          5.97781         7.93734         0.47495
C          4.88115         8.81103         0.93678
C          6.11393        10.82327         0.20474
C          4.97929        10.19386         0.82197
C          6.17282        12.21813         0.02378
C          5.09220        13.05905         0.49574
C          6.20193        15.06096        -0.35180
C          5.02640        14.48193         0.15315
C          6.26553        16.51352        -0.56594
C          4.91601        17.27499        -0.76816
C          6.19796        19.20765        -1.64948
C          4.97839        18.52805        -1.52431
C          6.24525        20.57313        -2.12099
C          5.02150        21.23490        -2.60501
C          6.31806        23.42478        -2.04931
C          5.12985        22.83768        -2.61231
C          6.21552        24.71491        -1.35033
C          4.86281        25.39600        -1.21109
C          6.04966        27.44822        -0.51431
C          4.83757        26.83107        -0.89267
C          6.00419        28.77590         0.13306
C          4.71243        29.53883         0.18715
C          5.97875        31.71804         0.39801
C          4.73260        31.00972         0.25888
C          5.97553        33.16005         0.54068
C          4.72784        33.84351         0.58603
C          5.90883        35.96335         1.06241
C          4.69889        35.24240         0.86903
C          5.88623        37.38336         1.36590
C          4.60398        38.01567         1.51369
C          8.46631         3.71982         1.52664
C          7.24218         4.42107         1.47283
C          8.46160         6.44529         0.72832
C          7.25826         5.78940         1.03196
C          8.46050         7.85146         0.33542
C          7.28257         8.56483         0.21450
C          8.55941        10.64002        -0.30317
C          7.22479         9.95427        -0.36191
C          8.55293        12.06587        -0.71003
C          7.33912        12.86575        -0.48805
C          8.63722        14.93898        -0.84094
C          7.39315        14.27104        -0.58725
C          8.65219        16.35034        -1.25571
C          7.44144        17.15119        -1.14140
C          8.72678        19.20560        -1.59818
C          7.45665        18.51266        -1.43477
C          8.73652        20.60758        -1.83250
C          7.48171        21.27510        -2.09115
C          8.75770        23.43591        -1.93302
C          7.51648        22.71301        -2.05531
C          8.66301        24.92330        -1.85247
C          7.42376        25.53689        -1.29689
C          8.54550        27.69491        -0.80773
C          7.32665        26.84852        -0.85780
C          8.52944        28.94105        -0.09222
C          7.27186        29.57787         0.29097
C          8.45691        31.80215         0.25553
C          7.20297        31.04161         0.35623
C          8.46732        33.22728         0.60289
C          7.18887        33.89874         0.66628
C          8.37209        36.09594         0.84743
C          7.13933        35.29929         0.88992
C          8.35797        37.49150         1.32728
C          7.07716        38.09126         1.54085
C         10.92725         3.66027         1.30968
C          9.69675         4.35703         1.22165
C         10.94543         6.41760         0.62502
C          9.69884         5.74457         0.84275
C         10.94791         7.84385         0.32923
C          9.74050         8.52329         0.17348
C         11.01052        10.67891         0.04448
C          9.72330         9.95146        -0.09029
C         11.06903        12.13940        -0.23933
C          9.85581        12.80631        -0.76722
C         11.12612        14.93354        -0.74021
C          9.87132        14.27324        -0.77142
C         11.13437        16.42872        -0.59601
C          9.96767        17.07883        -1.29178
C         11.19627        19.22760        -1.34789
C          9.95159        18.54571        -1.35619
C         11.20419        20.60922        -1.62050
C          9.98084        21.31469        -1.84170
C         11.24995        23.50259        -2.14082
C          9.96994        22.76035        -2.00198
C         11.26814        25.00307        -1.90064
C          9.94758        25.71121        -1.78384
C         11.14265        27.57399        -0.53726
C          9.93401        27.08261        -1.18312
C         11.09078        28.84366         0.17910
C          9.77233        29.57773         0.31097
C         10.97707        31.76881         0.77281
C          9.78844        31.06640         0.28851
C         10.92218        33.13101         1.00016
C          9.68415        33.86643         0.84035
C         10.88344        36.08457         1.31326
C          9.71560        35.34375         0.85978
C         10.83972        37.48619         1.45883
C          9.56561        38.16255         1.49148
C         13.40037         3.61766         1.18056
C         12.16105         4.30995         1.07660
C         13.46027         6.43779         0.76574
C         12.14761         5.70842         0.74340
C         13.44157         7.81333         0.15240
C         12.22573         8.53269         0.15500
C         13.49526        10.63304        -0.17273
C         12.27369         9.93443        -0.01977
C         13.54122        12.07069        -0.34825
C         12.35665        12.81044        -0.46513
C         13.61143        14.91967        -0.65451
C         12.35070        14.22200        -0.65042
C         13.64338        16.34244        -0.80596
C         12.43907        17.10302        -0.92634
C         13.72057        19.17304        -1.16969
C         12.45286        18.48283        -1.15245
C         13.77487        20.57967        -1.40075
C         12.52335        21.27137        -1.81341
C         13.82841        23.57872        -1.99633
C         12.54748        22.73969        -2.07100
C         13.66824        24.80376        -1.10496
C         12.45568        25.61666        -1.26019
C         13.60411        27.56493        -0.21876
C         12.38450        26.87896        -0.64229
C         13.53127        28.96611         0.16837
C         12.33491        29.61130         0.35372
C         13.49144        31.77154         1.12508
C         12.22631        30.98323         0.93686
C         13.46029        33.24344         1.22554
C         12.14099        33.85285         1.46324
C         13.39684        36.09405         1.50506
C         12.12459        35.35820         1.60555
C         13.32070        37.52286         1.64727
C         12.06450        38.17727         1.70105
C         15.87543         3.50701         0.79860
C         14.64001         4.23094         0.82131
C         15.84624         6.18224        -0.12009
C         14.63546         5.57974         0.41344
C         15.87748         7.71244        -0.36547
C         14.65209         8.48309        -0.10614
C         15.97597        10.56920        -0.35954
C         14.71152         9.89570        -0.22241
C         16.01217        11.99635        -0.42205
C         14.79893        12.74663        -0.43757
C         16.07593        14.86690        -0.48716
C         14.82128        14.17503        -0.53909
C         16.08185        16.27953        -0.55622
C         14.89416        17.02272        -0.79579
C         16.17593        19.15560        -0.88242
C         14.92735        18.45129        -0.94350
C         16.20406        20.57267        -1.03191
C         14.99691        21.27169        -1.35654
C         16.30617        23.45338        -1.12847
C         15.08318        22.73354        -1.64543
C         16.24382        24.88356        -0.75711
C         14.92413        25.51201        -0.60395
C         16.09284        27.65442        -0.01634
C         14.84984        26.94732        -0.30588
C         16.07743        29.00493         0.31751
C         14.80200        29.72600         0.25381
C         15.99074        31.89644         0.98545
C         14.76032        31.15747         0.65375
C         15.90821        33.26565         1.05991
C         14.63327        33.97763         1.17433
C         15.84554        36.21068         1.22207
C         14.62054        35.43780         1.31045
C         15.79180        37.61251         1.60877
C         14.53995        38.22190         1.81208
C         18.35198         3.44111         0.59268
C         17.09847         4.13999         0.51025
C         18.33550         6.20100        -0.12484
C         17.12373         5.50785         0.09089
C         18.36788         7.63246        -0.34710
C         17.17133         8.39504        -0.34939
C         18.45083        10.49770        -0.51730
C         17.19326         9.81876        -0.38073
C         18.48449        11.92969        -0.57947
C         17.26785        12.68121        -0.49277
C         18.56677        14.76559        -0.51272
C         17.30678        14.10720        -0.45987
C         18.64632        16.21297        -0.28158
C         17.31729        17.02168        -0.30076
C         18.63716        19.10652        -0.54643
C         17.38447        18.44915        -0.60296
C         18.66387        20.54020        -0.59343
C         17.44988        21.26318        -0.79294
C         18.66474        23.36097        -0.37869
C         17.47702        22.67589        -0.67106
C         18.62362        24.80435         0.06314
C         17.37520        25.55434        -0.32434
C         18.58303        27.66916         0.20195
C         17.34348        26.94522        -0.01044
C         18.57752        29.00826         0.57370
C         17.26584        29.61551         1.03270
C         18.54494        31.92553         0.94483
C         17.26889        31.15018         1.10385
C         18.44423        33.38483         0.58897
C         17.11548        34.06350         0.77632
C         18.26586        36.18250         0.59611
C         17.06246        35.53300         0.91290
C         18.20235        38.18905         1.39424
C         16.95968        38.39033         1.96761
C         19.53105         4.08312         0.31967
C         20.78623         6.16203        -0.19108
C         19.56427         5.47761        -0.00974
C         20.81387         7.53017        -0.41620
C         19.62578         8.30093        -0.46636
C         20.87235        10.44818        -0.80276
C         19.65520         9.74385        -0.60274
C         20.90648        11.82523        -0.88367
C         19.72802        12.60542        -0.75404
C         20.97465        14.78594        -0.94069
C         19.76342        14.04899        -0.74822
C         21.02035        16.16658        -0.90013
C         19.87873        16.94382        -0.57478
C         21.09571        19.10802        -0.47745
C         19.87395        18.36645        -0.50998
C         21.10962        20.47872        -0.42180
C         19.90107        21.24304        -0.46455
C         21.11077        23.45609        -0.30697
C         19.89969        22.66971        -0.35328
C         21.10135        24.82726        -0.29748
C         19.88761        25.58930        -0.19258
C         21.04824        27.78787        -0.10870
C         19.84831        26.97141        -0.05508
C         21.06931        29.06374         0.32443
C         19.86997        29.72877         0.94112
C         20.93637        32.02604         0.52262
C         19.83131        31.23841         0.68363
C         20.88808        33.46872         0.57192
C         19.70974        34.17033         0.63657
C         20.67458        36.48209         0.90909
C         19.58197        35.62490         0.67940
C         20.62975        37.79411         1.44864
C         19.51441        38.52865         1.83710
O         10.93921        11.66668         1.15692
O          3.01757        23.23912        -3.62581
O          9.44773        16.48945        -2.50916
O          1.60447        18.30730        -3.03178
O         12.86325        31.09344         2.26364
O          9.27448        12.24795        -1.99212
O          5.65373        17.31127         0.49310
O          5.30198        22.01748        -3.79301
O         18.18474        37.50433         0.15633
O         16.14402        23.11827        -2.57153
O          9.14183        35.91179        -0.37898
O         12.64118        21.80990        -3.20211
O         10.33190        28.87024         1.47923
O         12.00903        34.46682         2.79381
O         17.63406        33.67116        -0.58844
O          3.81150        19.38365        -3.56335
O         14.07148        24.64066         0.28443
O          5.41828        24.59356        -0.10809
O          9.23929        31.53859        -0.98343
O         17.97860        16.64494         0.94840
O          3.39075        13.29097         2.13034
O          3.76769        28.88694         1.09276
O         18.02118        31.62218         2.28829
O         14.77984        30.82492        -0.78850
O          5.62695         6.88093        -0.49605
O          9.25508        27.99256        -2.09439
O          6.66484        28.84061         1.44830
O         11.38415        24.45370        -3.24813
O          9.18446        25.64396        -3.01853
O         15.70322         6.77008        -1.47379
O         14.02259        24.13017        -3.30715
H         13.86033        23.41282        -3.95811
O          4.44169         8.47803         3.23264
H          4.35193         9.43437         3.43617
O         17.09150        29.19710         2.43593
H         17.20902        28.22328         2.47396
O         10.89854        16.70925         0.83178
H         11.62913        16.29923         1.34197
O          1.12269        36.48350        -1.19275
H          1.17689        35.65948        -1.72205
O         13.67951         6.73619         2.21832
H         12.88003         7.20950         2.53692
O          1.63987        11.81748         3.49631
H          2.39939        12.44693         3.47893
O         19.99387        29.60619         2.39328
H         19.20885        30.07038         2.77816
O          6.88798         9.78414        -1.78270
H          7.56600         9.20259        -2.18689
O         18.52184        24.72316         1.53747
H         19.35000        24.30868         1.86172
H          1.14169         3.08770         3.11634
H         -0.88079         4.50480         3.42389
H         -0.81081         6.92516         2.99950
H         -0.82975         8.70186         2.29750
H         -0.77106        11.11917         2.25381
H         -0.71259        12.28608         0.40352
H         -0.79300        14.46569        -0.72666
H         -0.91733        16.52367        -0.69895
H         -1.00014        18.90024        -1.18466
H         -0.79580        20.78215        -1.11350
H         -0.78840        23.23338        -1.16064
H         -0.93504        25.09209        -2.41745
H         -0.94666        27.49273        -1.98488
H         -0.94780        29.39400        -1.74715
H         -1.00557        31.71390        -1.03833
H         -1.13066        33.35584         0.09928
H         -1.18052        35.77126         0.46194
H          0.01779        37.86565         1.13855
H          3.54972         2.90054         2.61317
H          2.08695        38.95359         1.91995
H          5.99680         2.74302         2.08432
H          4.57082        39.07572         1.80762
H          8.47163         2.66351         1.83376
H          7.03283        39.15414         1.82317
H         10.92224         2.59661         1.59010
H          9.55483        39.22971         1.76008
H         13.39426         2.55651         1.46934
H         12.04032        39.26483         1.86453
H         15.87514         2.44311         1.07806
H         14.50786        39.29134         2.06810
H         18.34965         2.37995         0.88077
H         16.84321        39.13643         2.76829
H         20.48421         3.53805         0.38511
H         21.72995         5.60186        -0.12211
H         21.79061         8.02051        -0.52290
H         21.81685         9.89661        -0.89874
H         21.87642        12.31757        -1.03402
H         21.90272        14.24477        -1.16766
H         21.97467        16.66762        -1.11449
H         22.05033        18.56548        -0.43994
H         22.07608        20.99445        -0.34318
H         22.08121        22.94337        -0.35317
H         22.06373        25.35643        -0.34490
H         21.97265        27.34175        -0.50338
H         22.01705        29.62002         0.29438
H         21.92977        31.57271         0.39741
H         21.84767        34.00452         0.54310
H         21.67820        36.03014         0.87463
H         21.60740        38.19680         1.75818
H         19.65051        39.37033         2.53214
