         324
 CSIRO Nanostructure Databank - Neutral Graphene Oxide Data Set
C          1.20881         1.93584         0.56735
C          1.10980         3.30430         0.48140
C          2.45001         1.27689         0.75293
C          2.25959         4.15836         0.78276
C          1.07906         6.44298         0.81616
C          1.12260         7.80550         0.74528
C          2.21996         5.61816         0.39984
C          2.33432         8.53357         0.47337
C          1.18637        10.76880         0.36586
C          1.22887        12.16543         0.26909
C          2.36438         9.98295         0.49450
C          2.41033        12.89166         0.45481
C          1.40832        15.05797        -0.30169
C          1.40947        16.40442        -0.46204
C          2.51188        14.33107         0.30908
C          2.44567        17.23397         0.16320
C          2.60789        18.64536        -0.24464
C          3.65686         1.98744         0.78734
C          3.61573         3.45921         0.90264
C          4.91354         1.34687         0.71329
C          4.86533         4.20765         0.62019
C          3.54178         6.34356         0.17715
C          3.55293         7.82506         0.33026
C          4.80525         5.58124         0.32999
C          4.77762         8.52427         0.35938
C          3.60859        10.65946         0.60860
C          3.60541        12.12474         0.85030
C          4.82990         9.94155         0.56936
C          4.89270        12.84647         1.13399
C          3.68572        15.01950         0.61630
C          3.67051        16.48526         0.71126
C          4.95011        14.39246         1.18510
C          4.97505        17.22589         0.83814
C          3.74031        19.33534        -0.01186
C          4.96149        18.71481         0.54545
C          6.12796         2.07241         0.66765
C          6.09408         3.50290         0.61322
C          7.37854         1.37905         0.61505
C          7.39476         4.25863         0.71030
C          6.02785         6.27871        -0.03522
C          6.00723         7.81952        -0.00115
C          7.33554         5.62147         0.07267
C          7.35355         8.43477         0.33264
C          6.08757        10.63174         0.56493
C          6.15841        12.06772         0.92960
C          7.30655         9.94599         0.29076
C          7.40628        12.84921         0.60662
C          6.21885        15.06680         0.64245
C          6.25394        16.50564         0.59515
C          7.38694        14.33051         0.46461
C          7.45296        17.21983         0.35279
C          6.24680        19.36439         0.28622
C          7.46633        18.71001         0.32953
C          8.60112         2.03658         0.39135
C          8.60792         3.47545         0.26764
C          9.83713         1.32484         0.30053
C          9.77081         4.16386        -0.05955
C          8.50980         6.29352        -0.23705
C          8.43724         7.79016        -0.57128
C          9.74891         5.58344        -0.19952
C          9.78580         8.49901        -0.43255
C          8.49840        10.63063         0.10120
C          8.53852        12.08971         0.00022
C          9.78280         9.90445         0.06825
C          9.86611        12.80699        -0.07922
C          8.64201        14.99827         0.27838
C          8.65543        16.43748         0.20149
C          9.85368        14.25149         0.17632
C          9.93043        17.01252         0.01295
C          8.60323        19.62952         0.39397
C          9.93364        19.40070         0.03416
C         11.04935         1.96117        -0.00776
C         11.00482         3.39430        -0.49374
C         12.28498         1.28516        -0.02554
C         12.32868         4.10555        -0.30412
C         11.02793         6.30704        -0.10137
C         11.08207         7.77062        -0.35710
C         12.34297         5.57109        -0.12452
C         12.35169         8.49189        -0.07706
C         11.10024        10.62173         0.15616
C         11.14114        12.08583         0.05911
C         12.36615         9.87865        -0.03568
C         12.36561        12.74964         0.11891
C         11.11084        14.87954         0.19526
C         11.11963        16.28939         0.21962
C         12.37449        14.20257         0.14655
C         12.34821        16.99267         0.33947
C         11.12238        20.16859         0.10159
C         12.36058        19.37895         0.06014
C         13.52400         1.95121        -0.27627
C         13.49914         3.40585        -0.41114
C         14.75938         1.29394        -0.27750
C         14.77444         4.10797        -0.68554
C         13.56829         6.35435        -0.32682
C         13.57827         7.74509        -0.15874
C         14.80177         5.63492        -0.66833
C         14.81559         8.48119        -0.16509
C         13.59846        10.61304        -0.04453
C         13.61407        12.02569         0.06724
C         14.81970         9.87026        -0.14629
C         14.87520        12.74839         0.07995
C         13.56802        14.93927         0.12689
C         13.57539        16.36771         0.18754
C         14.88524        14.24122         0.36991
C         14.82705        17.23584         0.18616
C         13.56391        19.54143        -0.56073
C         14.68673        18.50419        -0.72411
C         16.02212         1.97804        -0.39599
C         16.04782         3.40433        -0.52960
C         17.24672         1.28824        -0.40195
C         17.26286         4.12107        -0.60493
C         16.08891         6.28642        -0.41052
C         16.07491         7.70691        -0.04719
C         17.27612         5.57427        -0.51093
C         17.40337         8.43050        -0.03613
C         16.07662        10.63171        -0.33933
C         16.06825        12.09122        -0.10964
C         17.38192         9.90195        -0.32734
C         17.39014        12.83443         0.01351
C         16.00607        14.96838        -0.35399
C         16.04909        16.44099        -0.29683
C         17.29380        14.22406        -0.57116
C         17.22703        17.08943        -0.58626
C         16.01005        19.23514        -0.70717
C         17.21913        18.55773        -0.64965
C         18.48433         1.97198        -0.55845
C         18.49407         3.40551        -0.65473
C         19.71361         1.27021        -0.58394
C         19.72715         4.11211        -0.85680
C         18.55076         6.27957        -0.52742
C         18.60853         7.67148        -0.38838
C         19.72837         5.52332        -0.85362
C         19.89606         8.40295        -0.43346
C         18.66000        10.66881        -0.18694
C         18.62543        12.11049        -0.48121
C         19.93922         9.90581        -0.37617
C         19.79021        12.78306        -0.80655
C         18.55299        14.97177        -0.72650
C         18.49304        16.38145        -0.77681
C         19.78376        14.26140        -0.88637
C         19.70322        17.11560        -0.89212
C         18.45057        19.24876        -0.73709
C         19.68320        18.56121        -0.84559
C         20.95356         1.93842        -0.73079
C         20.96755         3.37026        -0.93964
C         22.17926         1.23952        -0.65622
C         22.19972         4.02726        -1.09726
C         20.92972         6.24065        -1.30381
C         21.09553         7.68626        -0.95565
C         22.20684         5.44805        -1.47252
C         22.26331         8.47771        -1.43762
C         21.08104        10.63705        -0.96775
C         21.01098        12.02394        -1.08596
C         22.24461         9.85602        -1.39892
C         22.17314        12.78333        -1.62809
C         20.95925        14.99365        -1.12759
C         20.94705        16.42974        -1.07341
C         22.17122        14.28102        -1.61254
C         22.15125        17.17684        -1.17532
C         20.88858        19.27277        -0.90618
C         22.13976        18.60580        -1.03519
C         23.42225         1.91920        -0.65491
C         23.43682         3.34505        -0.85914
C         24.64849         1.25679        -0.40702
C         24.65237         4.05810        -0.70510
C         23.50406         6.20722        -1.46735
C         23.53191         7.70063        -1.61190
C         24.60706         5.53808        -0.70644
C         24.81332         8.42778        -1.29765
C         23.49941        10.60262        -1.71766
C         23.50646        12.09272        -1.73163
C         24.79202         9.91123        -1.38858
C         24.75423        12.83180        -1.34356
C         23.48307        15.03028        -1.73183
C         23.43386        16.50736        -1.50703
C         24.86701        14.31963        -1.66790
C         24.72433        17.21702        -1.19124
C         23.32997        19.34980        -0.97827
C         24.64027        18.70357        -0.93403
C         25.85146         1.97090        -0.23178
C         25.84502         3.40953        -0.32424
C         27.06874         1.30564         0.08800
C         27.04311         4.15337        -0.01002
C         25.81999         6.31117        -0.29983
C         25.91732         7.75420        -0.57911
C         27.06133         5.57746        -0.01089
C         27.03387         8.45248        -0.18518
C         25.81109        10.69617        -0.62621
C         25.84543        12.16450        -0.88212
C         27.00048         9.93769        -0.11726
C         27.11566        12.87552        -0.57498
C         25.87249        15.03272        -0.73760
C         25.82465        16.43350        -0.56514
C         27.01364        14.32840        -0.29139
C         26.84908        17.11039         0.14808
C         25.72350        19.31802        -0.18500
C         26.81510        18.57580         0.28495
C         28.24239         2.01708         0.35150
C         28.23637         3.45541         0.32039
C         29.46739         1.33951         0.68464
C         29.42355         4.18241         0.63813
C         28.22909         6.31216         0.27931
C         28.21952         7.75740         0.27031
C         29.42880         5.61144         0.62744
C         29.36906         8.48351         0.63491
C         28.25049        10.64745         0.16932
C         28.30117        12.11171        -0.03163
C         29.36586         9.94263         0.60435
C         29.35439        12.85132         0.69438
C         28.06448        14.98315         0.40249
C         27.94033        16.37092         0.66658
C         29.24712        14.25257         0.87320
C         28.94756        17.03300         1.51871
C         27.88452        19.27061         0.87463
C         28.92197        18.58663         1.62216
C         30.60368         2.03906         0.98351
C         30.61486         3.47471         0.97704
C         31.77589         4.20788         1.30211
C         30.60661         6.33186         0.97560
C         30.57999         7.78796         0.98602
C         31.76892         5.59619         1.30715
C         31.71334         8.54238         1.31214
C         30.54432        10.67022         1.02251
C         30.47777        12.12295         1.16138
C         31.68878         9.94583         1.35025
C         31.52067        12.83704         1.79107
C         30.31453        14.94079         1.52146
C         30.23303        16.37082         1.78021
C         31.44074        14.20798         1.95441
C         31.28668        17.10950         2.28481
C         30.17692        19.25918         1.95011
C         31.26307        18.53735         2.34846
O         25.33644         9.14166        -2.49252
O         24.70198         6.05408         0.67522
O         21.37674         5.81103        -2.61918
O         21.85802        13.53276        -2.84450
O         25.87458        10.38338         0.80262
O         11.69162         5.96874         1.17152
O          4.09250        12.37140         2.26215
O          2.88293         3.93210         2.08758
O         23.57492        11.32217        -2.98340
O         10.56169         8.25022        -1.65699
O         28.21546        12.50042        -1.47085
O          2.70278         5.87563        -0.95304
O         10.16564        18.20002        -0.63840
O          4.94064        18.18601         1.92806
O         20.90537         7.83952         0.49885
O         16.33374        14.38730        -1.65785
O         25.14305        18.11870        -2.24858
O         14.71913         4.89329        -1.93773
O         23.42893        15.94103        -2.87662
O          7.16308        12.37032         1.97079
O         12.20618        18.25458         0.87944
O         23.76364         6.81259        -2.76295
O          2.62149        16.99212         1.59104
O         19.50797        10.36361         0.96486
O         16.78079         8.02525         1.22243
O          5.88322         7.10480        -1.24120
O         10.42636        10.08213         1.39685
O          9.04885        12.50838        -1.30594
O         16.76256        10.22142        -1.61344
O         28.38554        17.70778         2.68037
O         15.09509        17.67275         1.53310
H         15.21434        16.87034         2.08616
O          4.96472        14.75834         2.58673
H          4.41632        14.09061         3.06114
O         14.50895        17.94611        -2.06237
H         14.54330        18.67987        -2.71072
O          8.03933         7.99102        -1.93347
H          8.83460         7.84937        -2.49490
O         17.64703        13.02155         1.44211
H         17.99415        12.18017         1.81014
O          7.57647         4.51097         2.16413
H          8.35158         5.10466         2.26694
O         10.85808         3.31059        -1.95841
H         11.59715         2.76258        -2.29980
O          7.64258         8.06375         1.70693
H          8.21988         8.74828         2.10895
O         25.45072        14.38640        -2.98134
H         24.98727        15.10804        -3.47127
O         15.15587        14.43139         1.79455
H         14.52378        13.87925         2.30119
H          0.31399         1.32107         0.39306
H          0.17507         3.77322         0.14165
H          2.47726         0.17773         0.73466
H          0.18568         5.93997         1.21402
H          0.22616         8.37454         1.03058
H          0.21552        10.26941         0.24583
H          0.28985        12.69344         0.05315
H          0.58842        14.47519        -0.74357
H          0.62705        16.89520        -1.05981
H          1.75874        19.13219        -0.74823
H          4.94789         0.24683         0.69304
H          3.82135        20.38110        -0.34651
H          7.36849         0.28128         0.69077
H          6.23603        20.45731         0.14946
H          9.83758         0.24413         0.51262
H          8.35267        20.63825         0.75676
H         12.30719         0.21188         0.21940
H         11.11742        21.24699         0.31422
H         14.77791         0.20067        -0.15235
H         13.68630        20.41848        -1.21789
H         17.25151         0.19140        -0.31737
H         16.01877        20.33098        -0.82025
H         19.70809         0.17710        -0.45848
H         18.44997        20.34905        -0.75419
H         22.16538         0.14876        -0.51212
H         20.87400        20.37046        -0.84137
H         24.65189         0.16359        -0.28232
H         23.27458        20.43045        -0.78271
H         27.07728         0.20684         0.14419
H         25.66439        20.39109         0.04967
H         29.47159         0.23986         0.70014
H         27.92977        20.36547         0.77760
H         31.53138         1.50711         1.24050
H         32.69710         3.66692         1.56265
H         32.69463         6.12156         1.57762
H         32.65583         8.04064         1.56806
H         32.60962        10.46571         1.64650
H         32.40667        12.31120         2.16951
H         32.26788        14.72239         2.46007
H         32.23542        16.61719         2.53659
H         30.23531        20.35118         1.83544
H         32.18926        19.05637         2.63285
