         324
 CSIRO Nanostructure Databank - Neutral Graphene Oxide Data Set
C          1.20506         1.96562         0.35308
C          1.13051         3.35518         0.37081
C          2.44229         1.31298         0.34994
C          2.30581         4.14617         0.38156
C          1.05841         6.33113         0.52319
C          1.06111         7.70975         0.54817
C          2.26307         5.59397         0.37027
C          2.25432         8.45948         0.31045
C          1.13904        10.64014         0.84261
C          1.07373        12.00010         0.82026
C          2.26221         9.90346         0.33168
C          2.12973        12.79796         0.11392
C          1.12569        15.04167         0.67870
C          1.21477        16.42926         0.97636
C          2.24430        14.25130         0.55510
C          2.44384        17.08891         1.02778
C          2.53813        18.50698         1.26885
C          3.63863         2.05182         0.38817
C          3.56881         3.48460         0.40735
C          4.91216         1.38454         0.35050
C          4.77858         4.24930         0.44878
C          3.47349         6.32650         0.19626
C          3.44891         7.74364         0.07666
C          4.73053         5.62518         0.25910
C          4.65767         8.44478        -0.48972
C          3.44779        10.64558        -0.03306
C          3.43206        12.03996         0.05839
C          4.67492         9.94783        -0.37181
C          4.60633        12.80688        -0.38644
C          3.56648        14.88665         0.70543
C          3.65628        16.35041         0.81351
C          4.80676        14.16672         0.19373
C          4.89213        16.99805         0.69573
C          3.74572        19.13808         1.24255
C          4.95932        18.42506         0.92548
C          6.10875         2.06941         0.49639
C          6.06861         3.54138         0.84889
C          7.37599         1.42695         0.47807
C          7.27958         4.25547         0.22441
C          5.96310         6.44246         0.39885
C          5.97107         7.85230        -0.04677
C          7.25405         5.72652         0.57543
C          7.13808         8.52662        -0.33264
C          5.85469        10.61380        -0.70176
C          5.81713        12.08153        -0.87613
C          7.13091         9.92010        -0.75363
C          7.08652        12.85815        -1.06947
C          6.03317        14.92997        -0.10138
C          6.08808        16.29697         0.27039
C          7.17370        14.27822        -0.64055
C          7.31752        17.00490         0.13046
C          6.17321        19.08873         0.83641
C          7.37356        18.40709         0.46458
C          8.60181         2.12080         0.58825
C          8.59852         3.58164         0.54145
C          9.84327         1.43912         0.65246
C          9.76525         4.28921         0.59841
C          8.52398         6.50232         0.41973
C          8.42807         7.78806        -0.32761
C          9.81882         5.77463         0.49104
C          9.70902         8.48754        -0.64451
C          8.35083        10.59935        -0.99709
C          8.36151        12.07651        -1.24193
C          9.61422         9.94561        -0.88028
C          9.62053        12.84852        -1.15612
C          8.41715        14.95206        -0.69318
C          8.49352        16.33079        -0.30748
C          9.64141        14.22828        -1.00877
C          9.74303        17.03812        -0.34601
C          8.59164        19.08624         0.40636
C          9.78723        18.42046         0.02680
C         11.07889         2.11627         0.75437
C         11.04243         3.59646         0.86696
C         12.31414         1.45107         0.67406
C         12.32157         4.37723         0.70167
C         11.06565         6.43205         0.00157
C         11.01603         7.83922        -0.33079
C         12.26248         5.73653         0.10140
C         12.17715         8.61809        -0.34869
C         10.82421        10.65571        -0.93675
C         10.85561        12.07833        -1.34382
C         12.04074        10.04576        -0.54816
C         12.16591        12.83227        -1.42161
C         10.91347        14.95646        -1.04542
C         10.95004        16.39127        -0.75533
C         12.10460        14.29771        -1.25064
C         12.16250        17.09977        -0.78350
C         11.02370        19.10399         0.03517
C         12.21292        18.46125        -0.34840
C         13.57154         2.12094         0.59193
C         13.61269         3.60425         0.65312
C         14.77250         1.43288         0.42837
C         14.86487         4.28636         0.17169
C         13.49565         6.34334        -0.40770
C         13.48355         7.91465        -0.51615
C         14.79716         5.67314        -0.30573
C         14.82488         8.51038        -0.43254
C         13.13233        10.92805        -0.27262
C         13.35557        12.16684        -0.83112
C         15.00644         9.85614        -0.07487
C         14.65346        12.86431        -0.73924
C         13.38989        15.00627        -1.45937
C         13.41556        16.52919        -1.42317
C         14.67946        14.23714        -1.36439
C         14.71410        17.09916        -0.83729
C         13.47022        19.13939        -0.22553
C         14.69880        18.49217        -0.39995
C         16.02689         2.06641         0.09310
C         16.04297         3.48308        -0.18842
C         17.21313         1.32791         0.04472
C         17.20080         4.16433        -0.58798
C         15.97690         6.31579        -0.71133
C         15.99456         7.77399        -0.77848
C         17.19806         5.56998        -0.80346
C         17.21474         8.47758        -0.82648
C         16.09078        10.62975        -0.49596
C         16.00656        12.10447        -0.60863
C         17.27839         9.89730        -0.77874
C         17.23136        12.75974        -1.18182
C         15.97546        15.01402        -1.35299
C         15.91037        16.43990        -0.95593
C         17.27858        14.26169        -1.26404
C         17.20005        17.16282        -0.83375
C         15.92195        19.14820        -0.09257
C         17.17419        18.52610        -0.25960
C         18.46369         1.88512        -0.46677
C         18.45013         3.41132        -0.83115
C         19.77092         1.29497        -0.20217
C         19.74042         4.12326        -0.76534
C         18.47631         6.25486        -1.05178
C         18.48907         7.76348        -1.00997
C         19.74967         5.53887        -0.82362
C         19.68975         8.40658        -0.33920
C         18.53577        10.58406        -0.78764
C         18.54724        12.02174        -1.07839
C         19.73939         9.91498        -0.53232
C         19.78385        12.77909        -0.82222
C         18.53618        14.93043        -0.87456
C         18.52645        16.40152        -0.81845
C         19.73311        14.21631        -0.72565
C         19.72129        17.06725        -0.26582
C         18.38906        19.15901         0.03420
C         19.65674        18.49231         0.01863
C         20.96790         1.97023        -0.48689
C         20.93860         3.38546        -0.75082
C         22.23883         1.30310        -0.33837
C         22.19487         4.11532        -0.97342
C         20.98322         6.25850        -0.75371
C         21.00356         7.77913        -0.83829
C         22.18561         5.57287        -0.77589
C         22.18040         8.42814        -0.11638
C         20.94028        10.64016        -0.38891
C         20.96549        12.07006        -0.52097
C         22.15735         9.91567         0.05686
C         22.21847        12.79077        -0.39168
C         20.97419        14.92914        -0.48972
C         20.91002        16.34884        -0.20538
C         22.19073        14.21870        -0.45641
C         22.13637        17.01220         0.27077
C         20.82783        19.21743         0.25785
C         22.10813        18.56771         0.46619
C         23.47060         1.93983        -0.48534
C         23.51104         3.36077        -0.89068
C         24.71907         1.30128        -0.24335
C         24.77932         4.10331        -0.73610
C         23.46927         6.25333        -0.48189
C         23.49194         7.70335        -0.11979
C         24.75102         5.58256        -0.87469
C         24.74165         8.50778        -0.18843
C         23.44811        10.67744         0.34445
C         23.44616        12.10431        -0.18473
C         24.71243         9.89879        -0.01410
C         24.68257        12.77560        -0.12789
C         23.47024        14.97029        -0.50959
C         23.44297        16.42623        -0.13058
C         24.81125        14.23562        -0.52244
C         24.67297        17.12679         0.28693
C         23.38352        19.24932         0.34463
C         24.61546        18.55582         0.43217
C         25.94835         1.98217        -0.32070
C         25.95732         3.41690        -0.58876
C         27.16502         1.31946         0.01693
C         27.24618         4.14904        -0.65737
C         26.02098         6.36434        -0.60200
C         25.98394         7.81082        -0.25147
C         27.24504         5.59745        -0.43037
C         27.18549         8.50882        -0.07270
C         25.92922        10.63046         0.07214
C         25.86897        12.05575         0.13876
C         27.19509         9.93466         0.05414
C         27.08684        12.79126         0.47968
C         25.93356        14.96972         0.22790
C         25.88892        16.42092         0.43363
C         27.08422        14.27044         0.47487
C         27.05911        17.13567         0.79351
C         25.83440        19.26159         0.55845
C         27.06491        18.57777         0.73216
C         28.39726         1.97409         0.12228
C         28.51937         3.38685        -0.29336
C         29.56267         1.34723         0.63234
C         29.71851         4.15507         0.11355
C         28.44765         6.25302         0.02850
C         28.43866         7.78031         0.19993
C         29.72787         5.53641         0.03879
C         29.72495         8.49740         0.15878
C         28.43304        10.61511         0.15549
C         28.41010        12.05115         0.48581
C         29.69893         9.92539         0.12890
C         29.63527        12.87163         0.26378
C         28.31827        14.91941         0.98574
C         28.28717        16.41573         1.17482
C         29.63233        14.27815         0.70346
C         29.59487        17.15369         1.23786
C         28.26543        19.30872         0.80608
C         29.56159        18.67589         1.05521
C         30.74281         2.05618         0.86875
C         30.84884         3.44309         0.64443
C         31.96858         4.22444         1.12538
C         31.04042         6.27944         0.05847
C         30.94429         7.78870         0.23807
C         32.03557         5.56867         0.94738
C         32.13752         8.51863         0.28525
C         30.93743        10.63863         0.19075
C         30.95780        12.12691         0.11009
C         32.13007         9.91729         0.27981
C         32.14860        12.91088         0.45664
C         30.82543        14.98475         0.73477
C         30.84808        16.44204         0.91264
C         32.07591        14.25331         0.65197
C         31.98731        17.18787         0.69578
C         30.79892        19.32495         0.61484
C         31.95847        18.61363         0.54704
O         13.37162         7.03820        -1.68206
O         18.02337        17.06587        -2.04326
O          6.54239         6.17272         1.76702
O         28.28206         6.92396         1.38394
O          8.98126         7.69642        -1.68420
O         17.80992        12.20628        -2.38640
O          4.81196        12.61972        -1.83144
O         18.61345         7.10283        -2.29181
O         16.75554        14.74789        -2.55764
O         22.90590         3.65647        -2.20188
O          4.47701        14.15482         1.62287
O         30.22443        12.65114        -1.05561
O         27.72164        12.31834         1.74011
O         14.02234        10.46068         0.69736
O         11.56127        12.29486        -2.63222
O          9.28533         6.52215         1.66434
O          7.59849        12.55848        -2.41019
O         11.71328         4.21133         2.02626
O         25.44336         6.14954        -2.00685
O         18.35489         2.41217        -1.85208
O         14.03078        14.40345        -2.65373
O         23.53213         6.67793         0.94373
O         22.09652        17.56070         1.57985
O         15.41465        12.83465         0.51211
O         28.14404        15.49761         2.32167
O         29.67635        18.03619         2.39164
O         14.55318         4.13676         1.64320
O         21.86836         8.99070         1.19311
O         23.44145        16.01533        -1.55237
O         28.16178         3.63615        -1.69543
O          7.12728         4.21508        -1.22122
H          7.14323         3.27566        -1.50270
O          6.16744         3.58790         2.28916
H          6.21555         4.54096         2.54895
O         23.51814        10.86133         1.78878
H         23.21075        10.01974         2.19815
O         21.17096         8.12067        -2.23154
H         20.40951         7.72986        -2.72582
O         31.57489         6.14258        -1.31329
H         31.62510         5.18373        -1.51666
O         13.40021        16.99852        -2.79660
H         13.88644        16.32903        -3.33198
O          1.70998        12.86559        -1.30780
H          2.52098        12.87409        -1.86448
O         25.25749        14.20180        -1.90889
H         24.88290        15.00270        -2.34586
O         19.45871         8.09130         1.05125
H         20.21728         8.45725         1.57057
O          4.56928         8.15477        -1.93751
H          5.30746         8.62728        -2.38034
H          0.27948         1.37364         0.33049
H          0.14301         3.83595         0.35403
H          2.48443         0.21468         0.32365
H          0.10609         5.80150         0.66270
H          0.10867         8.23495         0.69981
H          0.31079        10.08421         1.30473
H          0.19805        12.51616         1.23965
H          0.12814        14.59627         0.55474
H          0.28877        17.00326         1.12175
H          1.61598        19.06939         1.47471
H          4.92415         0.29433         0.19420
H          3.81232        20.21956         1.43148
H          7.40326         0.32865         0.39723
H          6.22037        20.16894         1.03971
H          9.84526         0.33932         0.60420
H          8.63267        20.15381         0.66783
H         12.31081         0.35275         0.59615
H         11.05536        20.15391         0.36195
H         14.75847         0.33318         0.47783
H         13.46360        20.18717         0.11143
H         17.22408         0.30217         0.44290
H         15.88586        20.18203         0.28366
H         19.81256         0.28901         0.24231
H         18.36858        20.20950         0.36157
H         22.22588         0.23675        -0.06598
H         20.79505        20.31630         0.23288
H         24.72151         0.23599         0.03258
H         23.38951        20.34110         0.21315
H         27.11121         0.25567         0.29424
H         25.82386        20.36070         0.58059
H         29.51893         0.27758         0.88376
H         28.23604        20.39536         0.63551
H         31.60174         1.52713         1.30722
H         32.75101         3.70523         1.69956
H         32.89149         6.13171         1.34742
H         33.10067         7.99117         0.30411
H         33.09182        10.44670         0.31228
H         33.11778        12.40492         0.56858
H         33.00615        14.79388         0.87391
H         32.94457        16.68810         0.49470
H         30.77058        20.38746         0.33308
H         32.89200        19.11795         0.25993
