         334
 CSIRO Nanostructure Databank - Neutral Graphene Oxide Data Set
C         30.39826        56.75297        -0.95877
C         30.37373        58.24303        -1.19704
C         29.21310        58.86654        -1.64512
C         30.38572        60.97154        -1.88280
C         29.21574        60.23624        -1.96920
C         32.85219        52.81775         0.43966
C         32.76279        54.25236         0.49738
C         31.57397        54.86452         0.13619
C         32.76782        57.04317        -0.06480
C         31.43159        56.35139         0.10530
C         32.78261        58.36885        -0.55943
C         31.57081        58.98768        -1.05549
C         32.80709        61.09206        -1.36254
C         31.58366        60.35931        -1.43346
C         35.29927        48.60314         0.83402
C         35.27534        50.00535         0.90546
C         34.07891        50.71775         0.63387
C         35.14260        52.81469         1.46080
C         34.00901        52.11760         0.74748
C         35.13150        54.34552         1.31556
C         33.92552        55.04290         0.82838
C         35.18710        57.16251         0.36741
C         33.96345        56.41987         0.41080
C         35.20571        58.49473        -0.10612
C         33.99027        59.12338        -0.54457
C         35.22644        61.35180        -0.84956
C         33.98306        60.49553        -0.95014
C         37.74777        44.33163         0.70851
C         37.73494        45.73464         0.84619
C         36.52201        46.46693         0.86536
C         37.75106        48.59845         1.05090
C         36.51091        47.87513         0.92835
C         37.74131        50.02243         1.16641
C         36.50625        50.73368         1.14114
C         37.70368        52.86374         1.26913
C         36.49673        52.15282         1.22105
C         37.68943        54.33704         0.90859
C         36.42572        55.10049         1.29711
C         37.72388        57.09225         0.38096
C         36.43800        56.61676         1.03556
C         37.71042        58.49278        -0.11520
C         36.43825        59.22898        -0.23800
C         37.73050        61.19993        -0.95774
C         36.50253        60.56019        -0.68675
C         40.21628        40.08171         0.26864
C         40.19802        41.50223         0.38829
C         38.98370        42.20599         0.47437
C         40.20960        44.33382         0.63394
C         38.96161        43.61289         0.61717
C         40.18894        45.74597         0.75506
C         38.98716        46.44777         0.89984
C         40.19563        48.60139         1.20485
C         38.98444        47.89244         1.05500
C         40.20919        50.01503         1.30569
C         38.96981        50.73929         1.28968
C         40.21490        52.86120         1.36552
C         38.95800        52.16800         1.33067
C         40.24112        54.34791         1.45165
C         38.93907        55.10056         1.31223
C         40.20216        57.17436         0.76814
C         39.00674        56.50664         0.86244
C         40.21646        58.63159         0.47270
C         38.94396        59.30903         0.05099
C         40.22178        61.24073        -0.78265
C         38.98599        60.62057        -0.62867
C         42.53197        36.14295        -1.26267
C         42.61283        37.33362        -0.54371
C         41.42942        37.87191         0.22914
C         42.64817        40.08121         0.32559
C         41.41385        39.38449         0.23895
C         42.68090        41.48136         0.43202
C         41.44739        42.21338         0.45157
C         42.70482        44.33729         0.64504
C         41.44702        43.62490         0.55762
C         42.72202        45.73593         0.73893
C         41.45512        46.53363         0.54258
C         42.72793        48.59461         1.11126
C         41.47066        47.80751         1.37864
C         42.70631        49.99825         1.17234
C         41.45399        50.73044         1.30316
C         42.69270        52.89148         0.96073
C         41.42139        52.15040         1.32679
C         42.75421        54.37220         1.42050
C         41.47051        55.10100         1.16860
C         42.71205        57.18358         0.72342
C         41.47706        56.48239         0.93090
C         42.75676        58.69018         0.63333
C         41.47373        59.30720         0.14402
C         42.70036        61.28711        -0.60932
C         41.45576        60.60032        -0.40118
C         44.77895        33.84223        -3.19310
C         43.62917        34.36893        -2.61521
C         44.93169        36.26687        -1.76800
C         43.68210        35.58967        -1.88945
C         45.00659        37.49178        -1.04223
C         43.84197        38.02278        -0.44774
C         45.17198        40.07793         0.16737
C         43.91794        39.27382         0.39646
C         45.17643        41.48419         0.42725
C         43.94092        42.18950         0.53416
C         45.17717        44.32226         0.70820
C         43.94144        43.60699         0.64544
C         45.17587        45.74381         0.80824
C         43.94254        46.44897         0.85085
C         45.19262        48.59320         0.90444
C         43.94547        47.88755         0.96130
C         45.16627        50.02083         0.97966
C         43.95403        50.68856         1.08194
C         45.21722        52.87611         1.17491
C         43.93455        52.13949         1.47065
C         45.16424        54.23549         0.53428
C         43.96200        55.07474         0.85951
C         45.14556        57.12717         0.15360
C         43.94434        56.45637         0.63055
C         45.14083        58.49690        -0.20768
C         43.96707        59.24662        -0.08341
C         45.16730        61.32311        -0.72166
C         43.93070        60.63227        -0.48405
C         46.01004        34.49896        -3.07311
C         47.34454        36.42044        -2.24147
C         46.10815        35.71379        -2.36235
C         47.43327        37.61321        -1.53293
C         46.27198        38.16148        -0.89305
C         47.68684        40.01933         0.07733
C         46.33758        39.42396        -0.24682
C         47.66625        41.52533         0.24773
C         46.41744        42.20714         0.43620
C         47.65377        44.32771         0.76170
C         46.41611        43.61316         0.62539
C         47.64259        45.72972         0.87979
C         46.41620        46.46874         0.82980
C         47.72568        48.61386         0.58582
C         46.42209        47.88322         0.84064
C         47.72253        50.06721         1.00330
C         46.44040        50.80468         0.75957
C         47.65412        53.02797         1.57597
C         46.40699        52.22496         1.26262
C         47.64063        54.34753         0.81219
C         46.46685        54.97458         0.54581
C         47.65452        57.07196        -0.35565
C         46.35921        56.33495        -0.05202
C         47.66228        58.51533        -0.49413
C         46.35111        59.14164        -0.89712
C         47.61951        61.33515        -0.82272
C         46.38127        60.64870        -0.77130
C         48.66242        38.39279        -1.53761
C         50.01622        40.41779        -1.01996
C         48.77912        39.56400        -0.86763
C         50.16598        41.44620         0.11818
C         48.87169        42.21098         0.31957
C         50.13716        44.28182         0.77660
C         48.90593        43.61077         0.65258
C         50.18851        45.63738         1.31758
C         48.87234        46.43886         1.26023
C         50.16914        48.57626         1.14674
C         48.94824        47.89076         1.09963
C         50.17025        50.01547         1.04865
C         48.90583        50.73662         1.14603
C         50.07703        52.86040         0.60637
C         49.02423        52.21140         1.56345
C         50.18299        54.35521         0.73398
C         48.90684        55.15192         0.87483
C         50.16664        57.16088         0.04442
C         48.92535        56.35554        -0.04475
C         50.09325        58.60778        -0.14171
C         48.87191        59.24243        -0.43159
C         50.09168        61.38511        -0.76743
C         48.86733        60.68956        -0.67959
C         51.34348        42.33952        -0.12511
C         52.52714        44.46690         0.11650
C         51.35257        43.67039         0.25950
C         52.64328        45.77465         0.63441
C         51.52066        46.37345         1.46382
C         52.62884        48.57822         1.11957
C         51.43867        47.88143         1.23797
C         52.63597        50.00261         0.91190
C         51.38800        50.71175         0.89474
C         52.60659        52.82828         0.71962
C         51.40589        52.14607         0.75602
C         52.66238        54.31510         0.97225
C         51.36825        55.02954         0.65583
C         52.58861        57.13927         0.25965
C         51.40760        56.47930         0.47803
C         52.62929        58.61593         0.15973
C         51.32948        59.38148         0.00048
C         52.57933        61.40281        -0.67929
C         51.35060        60.76823        -0.52161
C         53.81721        46.49529         0.53457
C         55.13470        48.60494         0.75033
C         53.94672        47.82647         1.23168
C         55.11169        49.97766         0.61745
C         53.85246        50.69962         0.72752
C         55.07519        52.83032         0.44212
C         53.85999        52.12369         0.64118
C         55.07390        54.26617         0.24930
C         53.88073        54.96212         0.37500
C         55.07184        57.08772        -0.39289
C         53.80346        56.35804        -0.03061
C         55.04042        58.57124        -0.41140
C         53.88565        59.28262        -0.25289
C         55.04448        61.41543        -0.61267
C         53.85106        60.73901        -0.49749
C         56.31755        50.72161         0.39043
C         57.53762        52.86204         0.17389
C         56.31238        52.11172         0.32317
C         57.55606        54.22895         0.05719
C         56.32031        54.97842        -0.00474
C         57.57483        57.10705        -0.35916
C         56.34205        56.36389        -0.22165
C         57.56373        58.49966        -0.61975
C         56.28457        59.26640        -0.89930
C         57.58120        61.37763        -0.86689
C         56.34679        60.69911        -0.34359
C         58.89003        54.94552         0.05062
C         60.00881        57.10991        -0.49112
C         58.82723        56.42136        -0.27670
C         60.01410        58.51031        -0.75396
C         58.76747        59.20949        -0.78126
C         59.99456        61.29373        -1.31938
C         58.75377        60.65035        -1.01111
C         61.21352        59.21459        -1.01461
C         61.18744        60.58418        -1.31216
O         49.57018        52.20073         2.84536
O         37.75060        57.34387        -1.05912
O         39.38230        59.39188         1.44875
O         51.98796        59.25709         1.32342
O         35.79649        54.86025         2.57651
O         54.21735        56.53174        -1.46442
O         39.46431        54.84422         2.63301
O         46.88512        56.38679        -1.43388
O         49.39605        45.86583         2.52553
O         49.77757        56.34320        -1.21446
O         41.53401        37.41244         1.59069
H         42.36317        37.80335         1.96097
O         42.61843        52.86799        -0.47988
H         43.46658        53.22244        -0.86152
O         47.85336        48.63542        -0.90684
H         47.64699        47.73296        -1.23311
O         46.44381        51.05326        -0.71652
H         46.95376        50.31118        -1.12905
O         59.81567        54.28057        -0.82252
H         59.46901        54.33908        -1.73621
O         54.21513        47.57068         2.64817
H         53.44913        47.04047         2.99263
O         45.02781        53.87243        -0.91841
H         45.67460        53.14565        -1.09100
O         44.01209        38.80418         1.80391
H         44.91850        38.44731         1.93147
O         42.90313        59.15839         2.04066
H         42.72589        60.12376         2.04735
O         50.45149        40.66953         1.33656
H         50.64866        41.31013         2.05298
O         30.86624        56.79613         1.38924
H         31.45729        56.46831         2.09984
O         56.50029        60.62563         1.10937
H         55.63257        60.37079         1.48977
O         49.57528        52.61589        -0.73810
H         50.05990        53.19535        -1.36361
O         42.88553        54.41277         2.89301
H         42.76645        55.34605         3.17363
O         41.51481        47.39424         2.77543
H         41.62061        48.19693         3.32808
O         51.91496        46.16608         2.85713
H         51.09370        46.27702         3.39259
O         46.18775        58.86961        -2.32683
H         46.32362        57.89480        -2.43554
O         49.95183        41.11871        -2.27460
H         49.14682        41.67677        -2.27210
O         36.48826        57.26994         2.33557
H         36.00364        56.68810         2.96762
O         56.17110        59.37736        -2.34542
H         55.92241        58.49615        -2.69646
O         37.64700        54.36756        -0.55099
H         38.43227        53.89595        -0.90098
O         43.85729        52.02875         2.92359
H         43.84042        52.93871         3.30370
O         47.48792        53.46363         2.95763
H         48.22576        52.97586         3.44596
O         35.31644        62.24541        -1.96605
H         35.37766        61.70899        -2.78270
O         52.82020        54.44839         2.42929
H         52.06442        53.98196         2.85041
O         48.00998        39.45064         1.39253
H         48.93694        39.73965         1.60253
O         29.11929        56.26587        -0.55974
H         29.03394        56.47220         0.39731
O         41.44652        46.95847        -0.85493
H         41.40661        46.15483        -1.41430
O         34.86257        52.52646         2.86395
H         35.38383        53.17347         3.39348
O         48.90929        55.71839         2.22562
H         48.50551        55.02676         2.81605
H         30.66404        56.24966        -1.92929
H         28.29196        58.27504        -1.74223
H         30.39892        62.03458        -2.16302
H         28.28827        60.71531        -2.31307
H         31.97594        52.26601         0.06599
H         30.69520        54.25057        -0.11024
H         32.81580        62.15256        -1.65487
H         34.35799        48.05705         0.67303
H         33.19588        50.16116         0.28453
H         35.11697        62.00607         0.06205
H         36.79403        43.78576         0.65638
H         35.56691        45.92559         0.79285
H         37.70224        62.21371        -1.38479
H         39.26158        39.53657         0.22610
H         38.03426        41.65119         0.44527
H         40.27477        62.24577        -1.22728
H         41.57102        35.61175        -1.33501
H         40.47130        37.47115        -0.18636
H         42.67681        62.32942        -0.95935
H         44.72340        32.89646        -3.75037
H         42.66956        33.84108        -2.71134
H         45.14817        62.42230        -0.78589
H         46.91000        34.06815        -3.53493
H         48.23875        36.01787        -2.74072
H         47.60304        62.43352        -0.90679
H         49.49111        38.03745        -2.17025
H         50.92948        39.77370        -1.05729
H         50.07401        62.44918        -1.04974
H         52.26444        41.88248        -0.51533
H         53.40006        44.02077        -0.38340
H         52.59936        62.45703        -0.99590
H         54.67942        46.06997        -0.00183
H         56.09267        48.06843         0.66792
H         55.04791        62.50452        -0.77352
H         57.26901        50.17472         0.31252
H         58.49088        52.31235         0.17688
H         57.58767        62.46920        -1.01170
H         59.32492        54.84976         1.08580
H         60.96314        56.56365        -0.46491
H         59.99657        62.37411        -1.52399
H         62.17055        58.67371        -0.99998
H         62.13024        61.10574        -1.52990
