         210
 CSIRO Nanostructure Databank - Neutral Graphene Oxide Data Set
C         30.47933        31.69608        -1.37337
C         30.76837        32.92563        -1.10163
C         30.66620        36.09598        -1.22166
C         30.70907        37.31391        -0.97757
C         30.62328        40.47227        -0.49309
C         30.57389        41.72596        -0.40450
C         32.71742        29.11108        -0.25441
C         31.62492        29.46591        -0.77465
C         32.82953        31.81864         0.27318
C         30.98901        30.70866        -0.51898
C         32.88806        33.17400        -0.14420
C         31.74784        33.82752        -0.75883
C         32.99853        35.97635        -0.48238
C         31.92253        35.23073        -1.28236
C         32.87248        37.38446        -0.09108
C         31.69201        38.19994        -0.46907
C         32.94547        40.33362        -0.05760
C         31.70690        39.58187        -0.31613
C         32.95645        41.77742        -0.05541
C         31.69749        42.53411        -0.17031
C         32.97339        44.54885         0.08753
C         31.90682        43.93814        -0.11219
C         35.33179        27.44917        -0.21788
C         35.20479        28.85301         0.06309
C         33.99034        29.57403         0.13751
C         35.26525        31.69549         0.33307
C         34.01737        31.02572         0.30686
C         35.32982        33.11661         0.26308
C         34.14901        33.84894        -0.06936
C         35.38985        35.98803         0.19240
C         34.16386        35.28772        -0.12888
C         35.42259        37.40446         0.22448
C         34.15764        38.15760         0.26179
C         35.40181        40.31005         0.23355
C         34.16337        39.62796         0.10947
C         35.41607        41.74487         0.24993
C         34.20356        42.45873         0.05905
C         35.47013        44.58876         0.54476
C         34.33320        43.98020        -0.20529
C         35.60354        45.91239         0.96538
C         37.73041        27.31823        -0.25989
C         36.39446        26.80708        -0.26398
C         37.71517        28.78209        -0.03243
C         36.47926        29.47992         0.17661
C         37.77773        31.65076         0.47845
C         36.49130        30.90400         0.70039
C         37.81452        33.04239         0.52551
C         36.57985        33.80450         0.41829
C         37.82231        35.94865         0.51868
C         36.60313        35.23896         0.37521
C         37.84942        37.35962         0.48789
C         36.63733        38.11363         0.35396
C         37.83531        40.26404         0.59863
C         36.63469        39.56870         0.38997
C         37.86932        41.70581         0.63877
C         36.66140        42.43604         0.49933
C         37.89916        44.51103         1.14203
C         36.68847        43.85927         0.72482
C         37.92351        45.92793         1.47016
C         36.63230        46.50786         1.38554
C         40.13734        24.53945         0.15860
C         39.12850        25.21568        -0.13768
C         40.26006        27.25426        -0.59140
C         38.89865        26.60092        -0.28831
C         40.21011        28.78380        -0.36699
C         38.95197        29.44416         0.05364
C         40.33946        31.61223         0.51485
C         39.00892        30.84735         0.52030
C         40.30060        33.08623         0.47253
C         39.08458        33.74991         0.56108
C         40.35143        35.93543         0.53463
C         39.07998        35.21417         0.91986
C         40.33318        37.36002         0.58538
C         39.09989        38.04613         0.66625
C         40.39533        40.22463         0.89924
C         39.05936        39.48889         0.89517
C         40.36515        41.67526         0.46952
C         39.10352        42.41835         0.81450
C         40.39896        44.41713         1.68683
C         39.13890        43.79928         1.07039
C         40.52600        45.99739         1.79824
C         39.11812        46.64606         1.64766
C         40.29778        48.77574         1.33231
C         39.32203        48.01613         1.62853
C         42.68092        24.61130         0.69548
C         41.43069        25.16003         0.31979
C         42.70779        27.30307         0.15291
C         41.47380        26.56558         0.06586
C         42.77112        28.72102        -0.03483
C         41.52645        29.50171        -0.19455
C         42.78855        31.62256         0.07567
C         41.58063        30.92785         0.15949
C         42.77414        33.08444         0.15978
C         41.55940        33.79038         0.33939
C         42.79414        35.95292         0.13983
C         41.55579        35.23313         0.34301
C         42.80870        37.35914         0.20664
C         41.58647        38.08832         0.47531
C         42.91155        40.22899         0.55206
C         41.60266        39.47515         0.55440
C         42.83166        41.67751         0.15110
C         41.67743        42.35595         0.79034
C         42.77419        44.57215         0.45141
C         41.72119        43.79969         1.15808
C         42.70626        46.01344         0.40186
C         41.60718        46.73025         0.98245
C         42.68103        48.77272         0.35044
C         41.53868        48.16789         0.93152
C         43.74627        25.27213         0.75980
C         45.17653        27.34149         0.43689
C         43.95063        26.63977         0.47720
C         45.22450        28.72652         0.16444
C         43.99226        29.43268         0.01980
C         45.26264        31.58029        -0.07082
C         44.01734        30.88461        -0.04533
C         45.21494        33.03537        -0.33071
C         43.98406        33.79958        -0.07562
C         45.25302        35.92903        -0.26145
C         44.01539        35.21666        -0.09339
C         45.24849        37.37498        -0.28706
C         44.03298        38.08776        -0.04431
C         45.19103        40.23630        -0.45340
C         44.04400        39.49367        -0.07710
C         45.13306        41.65903        -0.71185
C         43.88957        42.39033        -0.35851
C         44.49018        44.64762        -1.23236
C         43.70887        43.86961        -0.35666
C         44.70024        46.03217        -1.08890
C         43.77817        46.73345        -0.28221
C         43.63868        48.12973        -0.14175
C         47.50431        27.45124         0.79256
C         46.48075        26.74365         0.65133
C         47.76346        28.81631         0.57306
C         46.54312        29.43671        -0.12352
C         47.74704        31.66793         0.19333
C         46.50809        30.93864         0.03342
C         47.76859        33.08803         0.05793
C         46.54239        33.79084        -0.34223
C         47.73013        35.95502        -0.22683
C         46.49938        35.25623        -0.25751
C         47.73685        37.37356        -0.73839
C         46.43851        38.09962        -0.47790
C         47.64843        40.22811        -0.77044
C         46.41850        39.51035        -0.59854
C         47.59616        41.57990        -1.10178
C         46.33005        42.24481        -1.21526
C         47.42432        44.43045        -1.85603
C         46.34143        43.55657        -1.80609
C         46.97868        45.78480        -1.93998
C         45.93027        46.42397        -1.73081
C         50.16585        29.06318         1.24639
C         48.91004        29.55456         0.79578
C         50.16438        31.74089         0.82922
C         48.95763        30.99866         0.58695
C         50.15426        33.17161         0.65058
C         48.94260        33.84988         0.28340
C         50.14705        36.06148         0.23950
C         48.93658        35.28466         0.06948
C         50.13840        37.50008         0.06149
C         48.95089        38.17647        -0.34297
C         50.10167        40.36807        -0.37522
C         48.92026        39.56151        -0.53008
C         50.09462        41.76518        -0.70459
C         48.86027        42.32770        -1.33566
C         49.97948        44.50741        -1.22203
C         48.76843        43.85045        -1.70027
C         51.24426        29.66381         1.43108
C         52.49559        31.92533         1.42278
C         51.39569        31.06697         1.25730
C         52.42279        33.16899         1.23130
C         51.33638        33.96755         0.84320
C         52.41711        36.26328         0.86137
C         51.32451        35.37702         0.65343
C         52.39944        37.50483         0.72282
C         51.30229        38.30676         0.31173
C         52.33392        40.64253         0.27238
C         51.28863        39.70777         0.09920
C         52.35927        41.87364         0.02205
C         51.24834        42.58598        -0.48975
C         51.03833        43.94597        -0.88776
O         33.25834        37.66321         1.29915
O         49.05263        42.83661        -2.69786
O         31.60408        31.28769         0.69034
O         39.73890        39.91066         2.14487
O         45.90500        33.33860        -1.59239
O         39.78019        31.04075         1.76464
O         42.11095        42.75593         2.12630
O         45.10151        43.99077        -2.30912
O         40.13316        43.96508         2.98547
O         40.84216        29.43189        -1.54593
O         40.39851        41.63999        -1.00313
H         39.50690        41.39312        -1.32937
O         40.92132        46.24184         3.14844
H         40.67075        45.39744         3.63858
O         47.83971        37.23712        -2.20383
H         47.09870        36.66748        -2.50277
O         46.78879        29.21151        -1.55255
H         46.81180        28.24151        -1.70140
O         36.42279        30.75864         2.17518
H         35.55618        30.35315         2.39387
O         43.28873        40.26468         1.98288
H         42.76081        40.96777         2.42975
O         40.42764        27.01379        -2.00615
H         40.79783        27.84220        -2.39889
O         34.61919        44.14689        -1.60183
H         33.84572        43.83909        -2.11923
O         32.36141        35.17260        -2.64208
H         31.75825        34.58444        -3.14318
O         39.04553        35.23274         2.39774
H         39.79522        34.68856         2.72091
