         576
 CSIRO Nanostructure Databank - Neutral Graphene Oxide Data Set
C          6.11665        19.26165         1.50460
C          6.14634        20.65495         1.37069
C          4.98691        21.47422         1.68296
C          6.16490        23.53513         1.06044
C          4.97770        22.82060         1.46208
C          6.13545        24.88171         0.76927
C          8.30996        14.92942         1.61442
C          8.36617        16.23534         1.04443
C          7.27752        17.08108         1.37464
C          8.31573        19.09393         0.42895
C          7.22779        18.47267         1.10728
C          8.38093        20.50868         0.35757
C          7.32461        21.28499         0.88804
C          8.56708        23.41323         0.33583
C          7.47405        22.76907         1.14312
C          8.64374        24.93521         0.44423
C          7.30130        25.63939         0.39673
C          8.43087        27.74044        -0.30563
C          7.26415        26.99493         0.12293
C          8.45525        29.12266        -0.47838
C         10.89513        10.60584         1.93622
C         10.88437        12.06422         1.77066
C          9.61741        12.80721         2.06141
C         10.83999        14.71755         0.09715
C          9.17956        13.85286         1.28732
C         10.68460        16.13504        -0.02532
C          9.46874        16.80695         0.27697
C         10.64335        18.96566        -0.65414
C          9.36843        18.22653        -0.12223
C         10.65913        20.44391        -0.60364
C          9.56254        21.17584        -0.18224
C         10.66197        23.30204        -0.94025
C          9.55642        22.64606        -0.20427
C         10.67949        24.77397        -1.09400
C          9.61823        25.60523        -0.49143
C         10.66650        27.67754        -1.51336
C          9.58727        26.94939        -0.71257
C         10.93623        29.05059        -0.84600
C          9.64619        29.84797        -0.84270
C         10.87682        31.94984        -1.28223
C          9.66707        31.21914        -0.99715
C         10.93653        33.33789        -1.26357
C         13.36028         6.30541         2.23924
C         13.29118         7.73544         1.95619
C         12.14429         8.47042         2.13814
C         13.26071        10.52975         1.31527
C         12.07656         9.89591         1.85701
C         13.17806        11.72491         0.62147
C         12.08002        12.67222         0.99636
C         13.23482        14.79629         0.23542
C         12.05873        14.06985         0.42502
C         13.13360        16.06818        -0.49477
C         11.88961        16.86294        -0.37987
C         13.18774        18.93036        -0.82891
C         11.92107        18.22607        -0.63046
C         13.21736        20.34142        -0.90821
C         11.93737        21.08683        -1.00984
C         13.23338        23.27901        -0.71163
C         11.96451        22.57160        -1.09195
C         13.22891        24.81155        -0.67355
C         11.99324        25.43385        -1.34607
C         13.29496        27.58943        -1.25721
C         11.96742        26.90414        -1.56304
C         13.35750        29.07251        -1.62324
C         12.15811        29.74879        -1.45180
C         13.45439        31.97609        -1.61116
C         12.09012        31.19754        -1.64143
C         13.39564        33.38030        -1.18078
C         12.17637        34.06359        -1.20034
C         12.89371        36.18853        -0.16758
C         12.15102        35.55066        -1.11112
C         13.40747        37.55577        -0.08266
C         15.66563         6.13750         1.26606
C         14.46644         5.57343         1.99378
C         15.68507         7.67189         1.39341
C         14.54408         8.38207         1.59033
C         15.76198        10.46806         0.84537
C         14.59459         9.89410         1.62175
C         15.62855        11.71719         0.10850
C         14.32061        12.12339        -0.20066
C         15.73852        14.72925        -0.22846
C         14.58662        14.35898         0.67040
C         15.71813        16.07599        -0.67232
C         14.42938        16.76866        -0.84757
C         15.65557        18.90579        -1.06246
C         14.41485        18.22840        -0.92678
C         15.66537        20.32493        -1.07821
C         14.45446        21.02737        -1.02569
C         15.79118        23.21611        -1.09278
C         14.51002        22.50365        -0.81257
C         15.79274        24.72818        -0.95194
C         14.47243        25.37162        -1.32817
C         16.11178        27.71857        -1.77559
C         14.31737        26.62487        -1.82918
C         15.89666        29.02459        -1.41055
C         14.64957        29.78018        -1.62687
C         15.93918        31.90221        -1.25506
C         14.68981        31.17757        -1.49591
C         15.93915        33.24437        -0.91959
C         14.69613        34.09757        -0.89664
C         15.72496        35.73085         0.75284
C         14.67071        34.98564         0.35026
C         15.54048        37.09825         1.39374
C         14.54383        37.93707         0.55845
C         18.22250         6.11693         1.02089
C         16.99756         5.60404         1.72942
C         18.24878         7.63400         1.21504
C         16.97863         8.39054         1.31929
C         18.12401        10.30105         0.03989
C         16.94568         9.79214         0.84002
C         18.09539        11.80752        -0.09356
C         16.85514        12.46346        -0.19515
C         18.07767        14.47478        -1.05422
C         16.85277        13.89063        -0.44342
C         18.11047        15.98402        -1.34676
C         16.89385        16.76427        -1.05587
C         18.14297        18.84516        -1.52600
C         16.88002        18.15635        -1.19912
C         18.18575        20.34224        -1.46537
C         16.97798        21.04604        -0.86680
C         18.25731        23.19171        -1.55255
C         16.94293        22.51844        -1.20251
C         18.29180        24.67410        -1.22209
C         17.10109        25.41773        -1.35324
C         18.41552        27.47584        -1.06592
C         17.18991        26.84283        -1.34811
C         18.39534        28.92729        -0.81210
C         17.08917        29.69522        -0.84028
C         18.44270        31.64378        -1.32976
C         17.17995        31.13181        -1.15880
C         18.49774        33.71432        -0.84536
C         17.14956        33.91322        -0.33804
C         18.26948        35.93540         0.77575
C         17.06021        35.14742         0.55435
C         18.13467        37.29690         1.26518
C         16.86904        37.83099         1.52186
C         20.72412         6.24875         1.35069
C         19.55987         5.52471         1.40490
C         20.71630         7.70150         1.10575
C         19.49208         8.35734         0.85536
C         20.63967        10.45306         0.47841
C         19.44308         9.71462         0.50499
C         20.60645        11.89578         0.18139
C         19.33325        12.51676        -0.26147
C         20.62753        14.40916        -1.25987
C         19.35959        13.78782        -0.80886
C         20.65416        15.93633        -1.57830
C         19.40201        16.71792        -1.40425
C         20.70053        18.83387        -1.69577
C         19.40715        18.07953        -1.45402
C         20.70940        20.26377        -1.14455
C         19.47706        21.03536        -1.19574
C         20.62880        23.11893        -0.56372
C         19.45049        22.40346        -1.05126
C         20.75365        24.57195        -0.73711
C         19.54627        25.32684        -1.04496
C         20.90756        27.46868        -1.06584
C         19.59521        26.73516        -0.94527
C         20.87858        28.89828        -0.55623
C         19.67350        29.65759        -0.77939
C         20.73811        31.83833        -0.12202
C         19.66395        31.03792        -0.85808
C         20.94513        33.37859        -0.42453
C         19.62851        34.12384        -0.18275
C         20.72858        36.02982         0.95664
C         19.51358        35.33651         0.59129
C         20.63836        37.43414         1.37310
C         19.34639        38.03080         1.47951
C         23.20174         6.27972         1.34060
C         22.01634         5.58910         1.40156
C         23.19381         7.78087         1.50947
C         21.90852         8.44108         1.07515
C         23.12515        10.55200         0.57614
C         21.87596         9.82876         0.78439
C         23.15258        11.79793        -0.01524
C         21.92743        12.58786        -0.13311
C         23.10956        14.44964        -1.35054
C         21.93048        13.82373        -0.94556
C         23.13894        15.87514        -1.60934
C         21.95249        16.59736        -1.52116
C         23.16759        18.80158        -1.46709
C         21.90483        18.05228        -1.11781
C         23.24194        20.17907        -0.83894
C         21.90088        20.88619        -0.86160
C         23.19755        23.04204        -0.43956
C         21.93474        22.29671        -0.44188
C         23.18163        24.43527        -0.23247
C         21.97219        25.18944        -0.47355
C         23.30935        27.33741         0.03601
C         22.12620        26.65942        -0.61944
C         23.16760        28.80440         0.30825
C         22.01812        29.55643        -0.16237
C         23.15330        31.74802         0.67864
C         22.05253        31.05237        -0.07169
C         23.08926        33.20435         0.93101
C         22.03701        33.96080         0.47759
C         23.17596        36.06660         1.22968
C         21.93389        35.36032         0.87104
C         23.09604        37.40721         1.93780
C         21.81159        38.14543         1.65093
C         25.67175         6.27325         1.11703
C         24.47399         5.60850         1.28266
C         25.70862         7.74064         0.76579
C         24.41229         8.47919         0.96253
C         25.61861        10.64471         0.80747
C         24.38121         9.82215         0.73725
C         25.62643        11.99784         0.17279
C         24.41353        12.25739        -0.71664
C         25.71288        14.42649        -1.46032
C         24.40025        13.69151        -1.29639
C         25.79989        15.86524        -2.04066
C         24.38873        16.57531        -2.20191
C         25.69911        18.86385        -1.69017
C         24.42515        18.09884        -1.88861
C         25.64679        20.23475        -1.54788
C         24.34507        21.03111        -1.49420
C         25.62066        22.98950        -0.48190
C         24.43388        22.35701        -0.73424
C         25.62873        24.29108         0.23341
C         24.39982        25.11658         0.16188
C         25.72122        27.05942         0.89154
C         24.44040        26.46396         0.52612
C         25.80534        28.35599         1.44936
C         23.96669        29.45869         1.20029
C         25.46304        31.45115         1.87309
C         24.11661        30.89389         1.44379
C         25.47613        32.97179         2.05944
C         24.26389        33.79305         1.64261
C         25.54173        35.95314         2.22513
C         24.40237        35.27253         1.52998
C         25.58835        37.43184         1.95756
C         24.42008        38.12518         1.79090
C         28.13677         6.30267         0.97338
C         26.93629         5.60740         0.99970
C         28.21103         7.72268         1.50881
C         26.89137         8.47768         1.37492
C         28.17205        10.72285         1.15309
C         26.88035         9.96129         1.24737
C         28.13643        12.13872         0.52755
C         26.90945        12.69232        -0.08659
C         28.18831        14.62418        -0.89706
C         26.95246        13.86772        -0.81340
C         28.16311        16.00790        -1.28947
C         26.96163        16.69293        -1.48885
C         28.17717        18.84292        -1.61780
C         26.97160        18.13565        -1.64181
C         28.17763        20.31650        -1.96713
C         26.88440        21.04761        -1.62163
C         28.14192        23.12828        -0.70904
C         26.87296        22.44417        -1.04280
C         28.18590        24.35722        -0.11765
C         26.96319        24.99873         0.39978
C         28.12982        27.24199         0.64629
C         26.96173        26.45051         0.61672
C         28.09590        28.64851         0.86589
C         26.87809        29.24134         1.31114
C         28.05385        31.48283         1.52756
C         26.73276        30.77195         1.27923
C         28.08052        32.86405         2.10647
C         26.79995        33.57233         2.61580
C         28.07447        35.91800         2.47926
C         26.77868        35.15586         2.55541
C         28.05178        37.38087         2.17035
C         26.88445        38.07010         1.95729
C         30.56503         6.35749         0.60964
C         29.36254         5.65625         0.65609
C         30.58764         7.78928         0.80057
C         29.42397         8.51228         1.03055
C         30.63073        10.66715         0.79637
C         29.43506         9.95930         1.03929
C         30.62069        12.07412         0.45405
C         29.41518        12.73246         0.11568
C         30.66557        14.76363        -0.52327
C         29.40597        14.03193        -0.45978
C         30.69601        16.05755        -0.99453
C         29.47908        16.67188        -1.64209
C         30.64224        18.90255        -1.57100
C         29.45198        18.17971        -1.54873
C         30.61537        20.34028        -1.49869
C         29.41971        21.02168        -1.48168
C         30.66474        23.19544        -0.91538
C         29.39814        22.39462        -0.93730
C         30.65560        24.63306        -0.58883
C         29.45537        25.09518         0.10633
C         30.61374        27.40854         0.18560
C         29.43203        26.57963         0.47345
C         30.54040        28.81957         0.46696
C         29.31118        29.43654         0.80117
C         30.50722        31.58846         1.09486
C         29.24772        30.85366         1.13376
C         30.38647        33.10294         0.99531
C         29.34705        33.67140         1.95366
C         30.46781        35.95340         1.49026
C         29.33634        35.17735         2.15502
C         30.51068        37.40208         1.91797
C         29.32986        38.06503         2.13944
C         32.97368         6.35562         0.06678
C         31.79343         5.68900         0.24211
C         33.08961         7.77073         0.30713
C         31.92048         8.46383         0.96173
C         33.08024        10.60037         0.52412
C         31.88619         9.94338         0.69224
C         33.11549        12.07348         0.82369
C         31.85915        12.78620         0.35594
C         33.11970        14.88038        -0.04408
C         31.89149        14.11998        -0.06193
C         33.18576        16.19237        -0.48957
C         31.98495        16.77039        -1.13522
C         33.17266        19.03541        -1.07361
C         31.97902        18.23401        -1.47868
C         33.13941        20.40166        -1.10508
C         31.90175        21.08461        -1.52170
C         33.11912        23.31968        -1.16296
C         31.88676        22.56975        -1.47996
C         33.02304        24.80767        -1.22011
C         31.78391        25.42003        -0.68218
C         33.04071        27.56586        -0.27449
C         31.79821        26.80342        -0.25355
C         33.00632        28.94546         0.16279
C         31.78230        29.55924         0.49876
C         33.01269        31.65574         1.20260
C         31.71646        30.95676         0.85801
C         33.01899        33.14105         0.94130
C         31.72328        33.85607         1.03932
C         33.03980        35.96945         1.51912
C         31.76768        35.18937         1.77250
C         32.96600        37.40296         1.64733
C         31.78766        38.06832         1.86733
C         34.25651         8.46393         0.10397
C         35.54991        10.57057         0.27526
C         34.33657         9.89581         0.31998
C         35.64793        12.01391         0.34849
C         34.32975        12.73514         0.15684
C         35.63268        14.87810        -0.01461
C         34.35866        14.22285         0.52519
C         35.59984        16.37418         0.29180
C         34.37227        16.99768        -0.34204
C         35.57547        19.16650        -0.37467
C         34.37613        18.36525        -0.59543
C         35.55826        20.54945        -0.41669
C         34.20277        21.21304        -0.38672
C         35.35985        23.49627        -0.20509
C         34.22591        22.67760        -0.74781
C         35.55627        24.79324        -0.99677
C         34.28820        25.59012        -1.16205
C         35.51133        27.72568        -0.68829
C         34.24579        26.96922        -0.63825
C         35.50278        29.07000        -0.09751
C         34.27169        29.67287         0.25325
C         35.49405        31.72782         0.86958
C         34.27502        31.00601         0.71532
C         35.46195        33.14101         1.21833
C         34.29082        33.85578         1.25168
C         34.23195        35.29378         1.39007
C         36.83548        12.69691         0.36151
C         38.12374        14.90885        -0.06346
C         36.91557        14.20484         0.51789
C         38.10737        16.30637        -0.24910
C         36.88351        17.01667        -0.14112
C         38.14523        19.20817        -0.22758
C         36.85251        18.46729        -0.10880
C         38.07648        20.66315        -0.63042
C         36.76111        21.35569        -0.23978
C         37.75612        23.59308         0.25772
C         36.64945        22.72715        -0.08956
C         37.96946        24.86859        -0.18863
C         36.85798        25.52285        -0.93303
C         38.16166        27.77157        -0.75087
C         36.83253        27.03133        -0.98346
C         37.98093        29.05685         0.02296
C         36.75351        29.72487         0.17547
C         36.71123        31.07175         0.65549
C         39.31084        17.05844        -0.60103
C         40.52871        19.20250        -0.99941
C         39.35872        18.44203        -0.63035
C         40.58886        20.59121        -0.84546
C         39.42770        21.29405        -0.34408
C         40.72163        23.40549        -0.12267
C         39.63695        22.52502         0.22391
C         40.54036        24.79122        -0.08579
C         39.27619        25.53665        -0.08568
C         39.30824        26.90334        -0.26567
C         41.80182        21.37533        -0.98709
C         41.86714        22.71259        -0.68111
O         20.55536        14.93100        -2.61997
O         25.14045        13.62730        -2.56018
O         24.21788        35.86786         0.21062
O         32.23404        17.24451        -2.53558
O         13.52010        27.63295         0.15573
O         13.40913        35.33996         0.84207
O         38.69626        23.03062         1.12232
O         17.61230        29.24486         0.43935
O         11.96608        21.79979        -2.32590
O         13.63670        16.04466        -1.88529
O         31.91254        21.92104        -2.77835
O         17.79995         8.09572         2.53302
O         23.23298        31.52769        -0.78813
O         21.10847        22.61337         0.72527
O         36.10686        27.62234        -2.08366
O         24.65855        28.70681         2.14328
O         33.57471        25.40765        -2.43741
O         15.25598        27.14134        -2.71829
O          9.71507        13.91990        -0.03155
O         24.53530        30.97149         2.86384
O         26.72137        22.21688        -2.52036
O         14.78041        13.82263         1.75778
O         13.87181        22.76731         0.50177
O         23.27176        27.07698        -1.43717
O         12.11293        25.98071        -2.69702
O         36.44737        24.78209        -2.14044
O         25.33681        11.86790         1.59486
O         12.01181        12.72463         2.46550
O         30.24252        22.43877         0.28742
O         18.04416        19.70911        -2.75857
O         29.68364        25.53520         1.48126
O         29.14669        32.91200         3.14685
O         37.62574        18.96977         1.09980
O         17.90055        15.00732        -2.41229
O          9.63730        18.43043        -1.55080
O         32.39405        33.72256        -0.25625
O         29.05941        35.58367         3.51081
O         18.61781        32.88919        -1.97048
O         17.15256        33.79470         1.14011
O         12.72358        31.70137        -2.85149
O         21.26248        12.75169         1.18079
O         25.85792        35.62817         3.60255
O         26.33566        24.26066         1.51632
O         10.21512        23.92295        -2.19986
O         24.06867        16.47081        -3.61073
O         28.15604        11.90536         1.99077
O         24.41720        33.34860         3.01264
O         26.62724         9.28979         2.54690
O         37.99415        20.64297        -2.09091
H         37.98432        21.56738        -2.41848
O         15.85906        24.89922         0.50664
H         14.93753        24.80636         0.87008
O         23.28757         7.97727         2.96351
H         23.37990         8.93947         3.13310
O         29.64457        16.37251        -3.07356
H         30.54075        16.70643        -3.32644
O         21.73646        18.02134         0.32371
H         22.37126        18.65600         0.74007
O         10.20089        27.90047        -2.85295
H         10.45512        27.10927        -3.37994
O         14.97806        36.97571         2.72206
H         14.18042        36.40779         2.63407
O         18.37582        23.12814        -3.01311
H         17.64680        23.65570        -3.40319
O         14.80887        10.26484         3.01894
H         14.76403        11.24395         3.07953
O         35.50662        16.66928         1.70920
H         36.31651        16.31780         2.14360
O         38.61646        28.23772        -2.06573
H         37.79915        28.39317        -2.59736
O         31.75781        34.87292         3.18328
H         32.52279        34.29448         3.38683
O          9.16692        25.16576         1.80922
H          9.27562        26.13506         1.92639
O         23.60676        19.98490         0.56037
H         23.42689        20.81702         1.05055
O         15.45045         5.85886        -0.14214
H         16.32357         5.97056        -0.59666
O         30.21912        35.94704         0.06646
H         30.97507        36.38056        -0.38177
O         17.96150         9.77744        -1.32901
H         17.10839        10.11452        -1.67591
O         25.99448         7.79114        -0.67427
H         25.25246         7.35989        -1.14846
O         34.07191        12.66344        -1.28185
H         34.14735        11.72290        -1.55220
O         33.80754        21.23853         1.04033
H         33.94249        20.33680         1.40584
O         22.96875        37.04022         3.35839
H         23.04087        37.85671         3.89587
O         20.85131        18.92735        -3.12531
H         20.02111        19.31866        -3.48345
O         36.99997        14.44123         1.98318
H         37.76784        13.93056         2.31936
O         26.33930        15.66164        -3.36605
H         25.58951        15.70608        -4.00717
O         23.54459        18.79309        -2.85540
H         23.49795        17.24756        -3.83415
O         32.19604         8.35193         2.40786
H         31.46241         8.79825         2.88313
O         34.95637        23.92371         1.12915
H         34.57641        23.13162         1.57800
O         21.03443        27.62322        -2.51686
H         21.99676        27.74278        -2.69840
O         34.31184        14.39499         1.95814
H         35.23415        14.33509         2.30928
O         18.10347         5.91380        -0.42881
H         18.36282         4.98867        -0.62391
O         28.45303         7.54613         2.93561
H         27.97959         8.28299         3.39251
O         11.21264        28.82562         0.55602
H         12.14293        28.44307         0.63182
O         26.78157        33.24086         4.00675
H         26.00847        33.70367         4.40260
O         35.67291        14.79734        -1.44995
H         35.18930        13.98443        -1.73786
O         13.13897        25.15065         0.73044
H         13.28358        26.15045         0.78699
O         20.27070        31.83677         1.26188
H         19.65981        31.08320         1.40940
O         29.82391        33.30687        -0.32967
H         30.58325        33.37605        -0.95383
O         33.16843        12.12153         2.26674
H         33.34206        13.06189         2.52583
O         17.22535        20.98001         0.57602
H         16.57578        21.56411         1.02440
O         23.94237        21.36776        -2.83315
H         24.72254        21.77035        -3.27570
O         14.04422        12.87880        -1.28631
H         14.86139        13.12633        -1.76772
O         28.26563        20.32537        -3.42683
H         27.96630        21.21412        -3.72513
O         33.07962        31.60558         2.67718
H         33.04576        30.66372         2.94944
O         21.37019        33.55292        -1.78064
H         20.61085        33.32000        -2.36050
O          7.89723        22.84765         2.54887
H          8.34315        23.72386         2.66196
O         26.47400        31.04053        -0.15463
H         27.28442        30.82136        -0.66368
O         24.54830        11.33267        -1.83189
H         24.93475        11.84762        -2.58319
O         14.88222        35.09060        -1.97845
H         14.72499        34.62591        -2.82859
H          5.23771        18.77003         1.94688
H          4.07259        20.96441         2.02006
H          4.04728        23.39240         1.60079
H          5.16878        25.41106         0.80455
H          7.55934        14.76562         2.40258
H          6.43287        16.63797         1.92459
H          6.30478        27.53093         0.20464
H          7.53614        29.70037        -0.28653
H          9.95340        10.09288         2.18040
H          9.23193        12.70483         3.08721
H          8.73465        31.79471        -0.87880
H         10.00627        33.90482        -1.10651
H         12.47762         5.83308         2.69775
H         11.22523         7.96985         2.47871
H         11.61944        36.10735        -1.89807
H         12.85974        38.32729        -0.64997
H         14.47212         4.49719         2.22322
H         14.79283        39.01057         0.49738
H         17.10760         5.40535         2.80901
H         16.81419        38.85883         1.91690
H         19.61615         4.43337         1.54772
H         19.27877        39.07833         1.81322
H         22.03047         4.48748         1.39525
H         21.73916        39.20442         1.94845
H         24.48324         4.51179         1.39027
H         24.44415        39.21386         1.62689
H         26.94789         4.51282         0.87206
H         26.92875        39.15163         1.75649
H         29.34951         4.58523         0.40105
H         29.33514        39.15806         2.27774
H         33.86721         5.80873        -0.27036
H         31.74947         4.60484         0.05957
H         33.90631        37.97251         1.59581
H         31.80551        39.15870         2.01672
H         35.15227         7.93701        -0.26070
H         36.47952         9.98942         0.17287
H         36.42182        33.65444         1.38062
H         35.17699        35.85881         1.36118
H         37.77847        12.12693         0.41683
H         39.07451        14.36050        -0.15622
H         38.90086        29.61510         0.25651
H         37.65669        31.60826         0.82261
H         40.21552        16.48431        -0.85449
H         41.43324        18.65453        -1.30498
H         41.42310        25.40691        -0.32974
H         40.28653        27.40989        -0.26318
H         42.69400        20.87517        -1.39300
H         42.78947        23.27663        -0.88488
