         196
 CSIRO Nanostructure Databank - Neutral Graphene Oxide Data Set
C        -11.09629         0.63997        -0.13102
C         -9.84871         1.37859        -0.56037
C         -8.60198         0.66295        -0.08922
C         -7.42925         1.36253         0.18474
C         -6.19049         0.65862         0.32641
C         -4.96524         1.38228         0.42774
C         -3.74137         0.66202         0.48812
C         -2.48160         1.34443         0.39555
C         -1.24998         0.66391         0.41284
C         -0.01666         1.39519         0.36637
C          1.23997         0.66902         0.16661
C          2.51906         1.38003         0.31018
C          3.73315         0.65604         0.27726
C          4.97248         1.36852         0.25311
C          6.21111         0.66408         0.18234
C          7.44022         1.37738         0.03403
C          8.66058         0.66375        -0.11757
C          9.88500         1.39132        -0.30306
C         11.10327         0.63028        -0.46394
C         -9.83820         2.86186        -0.30095
C         -8.70314         3.55138         0.02157
C         -7.49399         2.82390         0.56958
C         -6.19605         3.56212         0.36719
C         -4.97157         2.83615         0.41118
C         -3.75700         3.53995         0.38666
C         -2.50157         2.79680         0.20354
C         -1.20685         3.55385         0.28059
C          0.03660         2.78938         0.44530
C          1.26497         3.50558         0.47013
C          2.50696         2.79365         0.41294
C          3.74515         3.50701         0.36219
C          4.96964         2.79609         0.25383
C          6.20579         3.51148         0.12105
C          7.43326         2.80524        -0.00427
C          8.65988         3.52810        -0.17899
C          9.87105         2.78839        -0.32520
C         -8.64557         4.98964        -0.03412
C         -7.44348         5.68463         0.06079
C         -6.19110         4.95413         0.22464
C         -4.95330         5.67484         0.19961
C         -3.72112         4.96658         0.33809
C         -2.49288         5.68583         0.38789
C         -1.23483         4.96964         0.79777
C          0.05343         5.69367         0.49337
C          1.25161         4.94668         0.45267
C          2.49905         5.64493         0.39086
C          3.73677         4.93612         0.35862
C          4.97199         5.63943         0.22470
C          6.19876         4.93310         0.08897
C          7.42455         5.66213        -0.08417
C          8.62963         4.94489        -0.21814
C         -7.38449         7.10830        -0.09560
C         -6.17962         7.80013        -0.11714
C         -4.93012         7.08649         0.03535
C         -3.69584         7.78135        -0.00667
C         -2.46318         7.07781         0.19152
C         -1.20725         7.78972         0.14817
C          0.04645         7.10716         0.31346
C          1.28499         7.82620         0.23475
C          2.49690         7.06938         0.41703
C          3.75788         7.69373         0.57620
C          4.97544         7.06590         0.27538
C          6.17874         7.80844        -0.04746
C          7.36446         7.09212        -0.19720
C         -6.12111         9.22931        -0.31511
C         -4.93073         9.89286        -0.37951
C         -3.66973         9.20198        -0.23248
C         -2.44872         9.86530        -0.32525
C         -1.20621         9.17578        -0.16493
C          0.03359         9.83280        -0.38867
C          1.27227         9.20517        -0.20437
C          2.46778         9.90977        -0.68255
C          3.72254         9.70602        -0.17273
C          5.04519        10.00709        -0.69147
C          6.13463         9.20059        -0.48943
C        -11.09113        -0.70775        -0.05226
C         -9.85588        -1.48198        -0.16779
C         -8.60856        -0.75997        -0.10869
C         -7.39060        -1.48386         0.04021
C         -6.17191        -0.76607         0.25657
C         -4.95376        -1.48313         0.46349
C         -3.75608        -0.75606         0.60641
C         -2.50172        -1.45137         0.93391
C         -1.21737        -0.76889         0.65513
C         -0.03973        -1.48129         0.69890
C          1.21978        -0.83593         0.28788
C          2.51409        -1.54316         0.37637
C          3.74449        -0.78825         0.24913
C          4.97528        -1.46171         0.24912
C          6.22361        -0.76109         0.22512
C          7.46190        -1.45991         0.13498
C          8.66600        -0.76340        -0.07307
C          9.90409        -1.50402        -0.24009
C         11.10966        -0.73595        -0.44067
C         -9.85217        -2.86429        -0.22702
C         -8.62077        -3.61252        -0.28928
C         -7.37979        -2.89678        -0.08813
C         -6.14683        -3.62270         0.03321
C         -4.94493        -2.93025         0.40044
C         -3.75623        -3.66423         0.57974
C         -2.52115        -2.97499         0.97691
C         -1.25010        -3.70889         0.89409
C         -0.01420        -2.92417         1.04594
C          1.29977        -3.67122         0.86162
C          2.49405        -2.92071         0.43729
C          3.68682        -3.68556         0.10106
C          4.98598        -2.91643         0.05060
C          6.21476        -3.68877         0.34806
C          7.51467        -2.92248         0.32993
C          8.73400        -3.67600        -0.02170
C          9.91634        -2.89939        -0.25067
C         -8.59797        -4.98381        -0.51186
C         -7.30428        -5.67356        -0.84114
C         -6.10904        -5.01351        -0.20002
C         -4.91065        -5.74766        -0.01294
C         -3.70933        -5.07030         0.37339
C         -2.48418        -5.80759         0.52756
C         -1.22778        -5.08974         0.76056
C          0.04257        -5.79440         0.69816
C          1.25584        -5.12619         0.62797
C          2.50484        -5.83854         0.41457
C          3.71133        -5.14825         0.27483
C          4.96171        -5.83418         0.10065
C          6.19827        -5.13648         0.08681
C          7.43549        -5.81546        -0.06404
C          8.66862        -5.06140        -0.13559
C         -7.30705        -7.16539        -0.68256
C         -6.14206        -7.86247        -0.48569
C         -4.89555        -7.16729        -0.19792
C         -3.69678        -7.88424        -0.02734
C         -2.49813        -7.20060         0.33666
C         -1.27566        -8.00163         0.55735
C          0.04837        -7.26976         0.71624
C          1.28720        -7.98947         0.38047
C          2.50046        -7.27480         0.29379
C          3.72576        -7.96768         0.05972
C          4.95831        -7.25537        -0.00596
C          6.19961        -7.94689        -0.18464
C          7.40661        -7.22737        -0.21753
C         -6.10296        -9.31094        -0.55537
C         -4.93028        -9.99551        -0.46704
C         -3.67274        -9.32570        -0.22303
C         -2.47971       -10.03342        -0.20400
C         -1.22797        -9.40514         0.09597
C         -0.01209       -10.06640         0.01587
C          1.25503        -9.39167         0.14514
C          2.47945       -10.07321        -0.07096
C          3.70624        -9.39056        -0.09342
C          4.96595       -10.06537        -0.28959
C          6.15029        -9.38190        -0.32420
O          3.77610         9.00505         1.05507
O         -1.29001         4.83003         2.26222
H         -1.29051         5.73144         2.64832
O         -7.68743         2.80906         2.03200
H         -8.53238         2.34428         2.21157
O         -0.67065        -7.81538         1.88116
O         -2.59346        -2.16823         2.21292
O          1.14302        -0.18814        -1.04039
O         -7.13027        -5.44938        -2.31248
H         -7.10681        -4.47724        -2.44751
O          4.31897        -3.30828        -1.18918
O         -9.83001         1.27004        -2.03184
H         -9.86048         0.31428        -2.25085
O          6.86861        -3.32505         1.60281
O          0.81763        -3.27400         2.20121
O         -1.80189         3.30739        -1.02227
H         12.05666        -1.28072        -0.57163
H         12.04468         1.17995        -0.61283
H         10.81583         3.33594        -0.46326
H          9.57146         5.49569        -0.36252
H          8.28676         7.63075        -0.46577
H          7.09537         9.57456        -0.88190
H          5.18478        10.93519        -1.26817
H          2.33549        10.57832        -1.54697
H          0.01464        10.87663        -0.73657
H         -2.43158        10.94501        -0.53751
H         -4.91309        10.98059        -0.54363
H         -7.06676         9.78014        -0.42823
H         -8.32708         7.66186        -0.22613
H         -9.56927         5.54121        -0.26958
H        -10.73283         3.42222        -0.61835
H        -12.03818         1.20010        -0.03007
H        -12.02341        -1.25830         0.14789
H        -10.80517        -3.41326        -0.26504
H         -9.54216        -5.52463        -0.67806
H         -8.24172        -7.70947        -0.88886
H         -7.04571        -9.84800        -0.73676
H         -4.92092       -11.09074        -0.57151
H         -2.48894       -11.11229        -0.42258
H         -0.00248       -11.13054        -0.26614
H          2.46459       -11.16190        -0.23110
H          4.96022       -11.15939        -0.40605
H          7.09502        -9.92732        -0.46711
H          8.35348        -7.77237        -0.35056
H          9.59269        -5.61714        -0.35887
H         10.86472        -3.42422        -0.44385
