         638
 CSIRO Nanostructure Databank - Neutral Graphene Oxide Data Set
C         23.55829        69.64044         3.30159
C         23.60173        70.98158         3.63792
C         22.62150        71.61522         4.46633
C         23.89657        73.70188         4.47392
C         22.76175        72.93602         4.84305
C         25.82685        65.46038         1.98931
C         25.85584        66.87237         2.21264
C         24.67954        67.56709         2.56051
C         25.86948        69.68845         2.38165
C         24.68243        68.96978         2.70366
C         25.82672        71.15636         2.34295
C         24.67161        71.83010         3.07155
C         26.10541        73.85996         3.39345
C         24.87994        73.18195         3.63298
C         28.04492        61.29934         0.76246
C         27.99783        62.67385         0.71296
C         26.86929        63.37979         1.22403
C         28.21647        65.45688         1.33472
C         26.93923        64.75906         1.49824
C         28.36474        66.78115         2.04803
C         27.08645        67.58738         2.10403
C         28.34037        69.75066         2.08958
C         27.09681        68.99248         2.17882
C         28.35749        71.12911         2.12600
C         27.08986        71.94629         2.01509
C         28.43185        73.95716         2.65491
C         27.20112        73.27543         2.75279
C         30.37443        57.04985        -0.56902
C         30.36438        58.44788        -0.27567
C         29.21557        59.12132         0.11395
C         30.39648        61.27902        -0.12753
C         29.32945        60.53064         0.64045
C         30.32294        62.75343        -0.34391
C         29.04381        63.52836         0.00581
C         30.53633        65.55929         0.49263
C         29.27432        64.85418         0.70653
C         30.58709        66.97343         0.92445
C         29.54862        67.58114         1.57333
C         30.78833        69.79020         1.54891
C         29.65508        68.98853         2.13850
C         30.77271        71.21997         1.64428
C         29.58817        71.88106         2.00810
C         30.80312        74.04012         1.96002
C         29.59907        73.31664         2.18045
C         32.81528        52.80097        -1.17691
C         32.80477        54.23215        -1.20928
C         31.58584        54.95555        -1.03308
C         32.81701        57.09816        -0.94529
C         31.55998        56.36061        -0.89242
C         32.85566        58.41469        -0.56018
C         31.64357        59.16691        -0.31177
C         32.92480        61.29272        -0.36665
C         31.68583        60.55047        -0.22993
C         32.91102        62.76578        -0.38519
C         31.60126        63.53675        -0.68144
C         32.87821        65.72409        -0.41551
C         31.60904        64.95683        -0.12161
C         32.92909        67.08581         0.22764
C         31.82905        67.71577         0.71829
C         33.02073        69.91590         0.54908
C         31.88711        69.14459         1.01738
C         32.99846        71.34144         0.63597
C         31.92119        71.98391         1.22881
C         33.16918        74.12804         1.20057
C         31.95368        73.42335         1.44444
C         35.27035        48.58226        -0.60377
C         35.25582        49.93126        -1.01252
C         34.03053        50.66647        -1.05936
C         35.20653        52.71073        -1.86166
C         33.97949        52.03588        -1.36682
C         35.23617        54.21348        -1.77596
C         34.01064        54.94008        -1.41340
C         35.36332        56.91240        -0.67602
C         34.06731        56.41818        -1.45354
C         35.38563        58.39439        -0.66715
C         34.15041        59.08893        -0.15334
C         35.40093        61.25817        -0.35244
C         34.10669        60.57941        -0.38987
C         35.40586        62.77934        -0.26850
C         34.08918        63.46465        -0.32503
C         35.39807        65.66897        -0.40933
C         34.12133        64.93466         0.04185
C         35.23730        67.13411        -0.60628
C         34.26059        67.78497         0.31541
C         35.31319        69.98918        -0.38222
C         34.15173        69.26174         0.05677
C         35.37329        71.38638        -0.22330
C         34.09082        72.14794        -0.01501
C         35.52809        74.13269         0.41618
C         34.28623        73.50863         0.60548
C         37.72526        44.46181         0.53652
C         37.71902        45.80197         0.08626
C         36.50333        46.50357        -0.09042
C         37.73031        48.53216        -0.73469
C         36.48290        47.86005        -0.48086
C         37.71759        49.91127        -1.13094
C         36.49967        50.58183        -1.29945
C         37.76535        52.74305        -1.71475
C         36.51315        51.92080        -1.98946
C         37.75483        54.13246        -1.81878
C         36.54198        54.90564        -1.65806
C         37.84685        56.96263        -1.33264
C         36.58736        56.23939        -1.27920
C         37.83959        58.42369        -1.18635
C         36.50926        59.15109        -1.31786
C         37.78046        61.29602        -0.85598
C         36.60217        60.58581        -0.83534
C         37.82248        62.74642        -0.83020
C         36.63130        63.45100        -0.72544
C         37.84515        65.54401        -1.41839
C         36.63271        64.92118        -0.82553
C         37.87691        66.87149        -1.83652
C         36.07285        67.93177        -1.32425
C         37.69482        69.89153        -1.16466
C         36.40095        69.29772        -0.98451
C         37.76915        71.29502        -0.82411
C         36.59981        72.03701        -0.43148
C         37.90294        74.10656        -0.25191
C         36.67094        73.45402        -0.11773
C         40.13497        40.37789         1.85074
C         40.13405        41.73812         1.46869
C         38.92944        42.43040         1.21471
C         40.19427        44.46147         0.60865
C         38.93202        43.77708         0.79511
C         40.20604        45.78946         0.07110
C         38.97033        46.46331        -0.18639
C         40.19060        48.51703        -0.85370
C         38.95194        47.82291        -0.62880
C         40.19193        49.88710        -1.06899
C         38.97382        50.62496        -1.26311
C         40.25548        52.74790        -1.48014
C         38.99275        52.01762        -1.51251
C         40.28324        54.14231        -1.66146
C         39.03782        54.88004        -2.08306
C         40.29338        57.09417        -1.82605
C         39.01857        56.31248        -1.62869
C         40.32020        58.35092        -0.95165
C         39.01523        59.10216        -1.08366
C         40.33960        61.30570        -0.95721
C         39.05060        60.55488        -0.84792
C         40.31302        62.76333        -1.19452
C         39.08778        63.44463        -1.09330
C         40.27661        65.58011        -1.63101
C         39.07956        64.85284        -1.33122
C         40.23006        66.99813        -1.72748
C         39.00786        67.72099        -1.69364
C         40.18704        69.85781        -1.40393
C         38.92880        69.16479        -1.49558
C         40.22443        71.27219        -1.11974
C         39.01783        71.98798        -0.87035
C         40.32997        74.07129        -0.67211
C         39.07498        73.39745        -0.60917
C         42.56946        36.29190         3.16327
C         42.54790        37.60901         2.58498
C         41.34858        38.31431         2.44679
C         42.59334        40.38820         1.94460
C         41.33945        39.68282         2.06165
C         42.59415        41.77139         1.65977
C         41.38965        42.44305         1.36888
C         42.66765        44.46671         0.67851
C         41.40463        43.80822         0.92325
C         42.67064        45.76792         0.05929
C         41.45590        46.41784        -0.20967
C         42.74153        48.47360        -0.90678
C         41.45363        47.69308        -1.01752
C         42.73500        49.85493        -1.08970
C         41.47050        50.63154        -0.80520
C         42.70761        52.72322        -1.32176
C         41.47559        52.05189        -1.27689
C         42.73842        54.14501        -1.40243
C         41.51139        54.86194        -1.55132
C         42.75801        56.96834        -1.40986
C         41.54404        56.28216        -1.58070
C         42.78536        58.42958        -1.39683
C         41.56405        59.16292        -1.26349
C         42.76128        61.31371        -1.44203
C         41.56435        60.55673        -1.28822
C         42.77157        62.71916        -1.57047
C         41.52576        63.44664        -1.49990
C         42.75205        65.54913        -1.87931
C         41.52409        64.86167        -1.69744
C         42.77112        67.00715        -2.06032
C         41.44449        67.76780        -1.99339
C         42.68490        69.84877        -1.54563
C         41.43339        69.19026        -1.64464
C         42.69796        71.22943        -1.19093
C         41.46605        71.95966        -1.05216
C         42.85160        74.10293        -0.90061
C         41.50820        73.37972        -0.88014
C         45.02064        33.82147         4.49904
C         43.80745        34.41606         4.20152
C         45.01535        36.11298         2.84344
C         43.74940        35.61823         3.43200
C         45.01997        37.46989         2.18104
C         43.78593        38.27452         2.26621
C         45.10683        40.35427         1.98458
C         43.81938        39.65321         2.05342
C         45.12351        41.78369         1.79722
C         43.85159        42.58511         1.84247
C         45.12932        44.41408         0.61987
C         43.87725        43.83547         0.99671
C         45.13341        45.68602        -0.05806
C         43.94277        46.37665        -0.27614
C         45.20199        48.45051        -0.79816
C         43.97181        47.76287        -0.72848
C         45.21651        49.86613        -1.11783
C         43.95472        50.57483        -1.23720
C         45.17753        52.71060        -1.38905
C         43.94580        51.98649        -1.31963
C         45.21052        54.08661        -1.25222
C         43.97852        54.83939        -1.26928
C         45.22278        56.99591        -1.02866
C         43.96746        56.25009        -1.22873
C         45.25863        58.42336        -1.37762
C         44.00623        59.11350        -1.42883
C         45.30258        61.32501        -1.65905
C         44.01485        60.57748        -1.33920
C         45.20673        62.72372        -2.07062
C         44.00740        63.41921        -1.86453
C         45.20364        65.61031        -2.02201
C         43.98983        64.86719        -1.94870
C         45.23023        67.01468        -1.79769
C         44.00963        67.73664        -1.77331
C         45.16952        69.88881        -1.53634
C         43.95464        69.15386        -1.62160
C         45.14117        71.27649        -1.32367
C         43.92305        71.88918        -0.98045
C         45.22476        73.74970         0.08272
C         43.87200        73.18760        -0.20588
C         46.25346        34.39258         4.10126
C         47.50969        36.23273         3.04218
C         46.29807        35.54791         3.31824
C         47.56420        37.50594         2.46589
C         46.33767        38.15942         1.84412
C         47.57676        40.37431         2.31581
C         46.29045        39.64610         2.06617
C         47.59712        41.76527         1.74163
C         46.33253        42.45448         1.55155
C         47.66955        44.26687         0.43269
C         46.33558        43.75011         0.94998
C         47.61496        45.75348         0.20997
C         46.44012        46.24533        -0.59071
C         47.66400        48.45488        -0.67313
C         46.45262        47.76054        -0.65712
C         47.66645        49.96488        -0.64470
C         46.41313        50.54672        -1.22443
C         47.70356        52.67304        -1.64803
C         46.40959        51.93032        -1.79856
C         47.64681        54.15295        -1.91637
C         46.56044        54.73216        -0.98018
C         47.74581        56.97381        -1.39189
C         46.52914        56.24951        -0.99862
C         47.72525        58.35982        -1.58292
C         46.48003        59.07290        -1.56807
C         47.75381        61.18248        -2.35111
C         46.46893        60.47936        -2.03858
C         47.73975        62.67745        -2.52815
C         46.41945        63.40339        -2.56439
C         47.73714        65.62117        -2.13887
C         46.45124        64.92981        -2.40345
C         47.69652        67.05869        -1.94900
C         46.49942        67.72043        -1.76002
C         47.63765        69.93886        -2.11381
C         46.50424        69.18936        -1.38778
C         47.64240        71.44787        -1.84194
C         46.32042        72.19896        -1.56581
C         47.64491        73.79791        -0.11224
C         46.41051        73.24156        -0.45074
C         48.78819        38.19066         2.30318
C         50.00101        40.24807         1.68470
C         48.82558        39.57162         2.02259
C         50.03632        41.65789         1.48625
C         48.80327        42.41121         1.59328
C         50.19015        44.58180         1.33574
C         48.76387        43.91853         1.46541
C         50.15314        46.00942         0.67521
C         48.95114        46.32841        -0.22020
C         50.14138        48.46884        -0.74060
C         48.92964        47.80027        -0.54972
C         50.16086        49.88991        -1.07630
C         48.93567        50.60545        -1.14660
C         50.15951        52.70992        -1.66398
C         48.90856        51.99738        -1.47394
C         50.20794        54.10186        -1.75464
C         48.96818        54.85959        -1.71406
C         50.23574        56.95329        -1.16587
C         48.96710        56.22175        -1.50931
C         50.20152        58.42061        -1.52543
C         48.98423        59.08602        -1.76098
C         50.18259        61.21532        -1.71850
C         49.00787        60.48498        -1.99944
C         50.10570        62.69449        -1.56641
C         48.98461        63.45443        -2.20656
C         50.17973        65.60892        -1.70529
C         48.92621        64.92427        -1.98776
C         50.20070        67.06267        -1.65493
C         49.00553        67.80351        -2.19446
C         50.09913        69.91433        -1.33113
C         48.95665        69.25761        -1.80376
C         50.11678        71.34171        -1.12483
C         48.92285        72.14377        -1.49466
C         50.09575        74.15845        -0.51003
C         48.80747        73.60963        -1.04563
C         51.21141        42.29497         1.04646
C         52.51880        44.26477         0.43613
C         51.29955        43.68402         0.80093
C         52.63290        45.64779         0.10183
C         51.34343        46.29402        -0.33197
C         52.61659        48.40980        -0.77745
C         51.40501        47.78353        -0.58861
C         52.68606        49.76036        -1.45229
C         51.38062        50.51608        -1.36196
C         52.72563        52.69491        -1.59939
C         51.38973        51.92599        -1.73848
C         52.65050        54.13672        -1.40044
C         51.46991        54.80359        -1.63278
C         52.70770        57.01696        -1.31370
C         51.46023        56.30436        -1.78880
C         52.67015        58.41804        -1.23203
C         51.41292        59.13488        -1.42310
C         52.52824        61.27962        -0.73813
C         51.37843        60.54882        -1.39580
C         52.61619        62.73778        -1.08794
C         51.36209        63.46300        -1.26071
C         52.66238        65.65800        -1.52745
C         51.35740        64.90397        -1.51339
C         52.49568        66.92838        -0.66583
C         51.30713        67.73820        -1.17022
C         52.45584        69.83224        -0.51288
C         51.30275        69.16542        -1.01971
C         52.41060        71.21689        -0.26209
C         51.24113        71.96677        -0.57150
C         52.46596        74.07727         0.01649
C         51.22949        73.42010        -0.34372
C         53.81461        46.35569        -0.00219
C         55.04574        48.45247        -0.38306
C         53.85386        47.73862        -0.41318
C         55.12837        49.86139        -0.68487
C         53.90661        50.57710        -1.05741
C         55.14159        52.71906        -0.96333
C         53.92596        51.94927        -1.16160
C         55.12098        54.09315        -0.85068
C         53.80890        54.83360        -0.71987
C         55.11855        57.00045        -0.88751
C         53.89796        56.30869        -1.04954
C         55.11780        58.43774        -0.89693
C         53.87656        59.14718        -0.98115
C         55.02623        61.28001        -0.57262
C         53.84574        60.55936        -0.84836
C         55.03058        62.72022        -0.56423
C         53.82782        63.45563        -0.92431
C         55.15726        65.60704        -1.09969
C         53.86097        64.85352        -1.09884
C         55.03113        67.04048        -0.58974
C         53.77995        67.71986        -0.57271
C         54.92366        69.81829        -0.05163
C         53.71510        69.09864        -0.33553
C         54.89376        71.21316         0.21553
C         53.56012        71.87969         0.45927
C         54.85045        74.05085         0.54949
C         53.61423        73.37838         0.27901
C         56.32525        50.53755        -0.62593
C         57.59274        52.72807        -0.48007
C         56.44750        51.96782        -1.08160
C         57.58895        54.11317        -0.43077
C         56.34307        54.85465        -0.67939
C         57.66822        56.95315        -0.79608
C         56.33745        56.24289        -0.68166
C         57.60801        58.46117        -0.54056
C         56.30665        59.17984        -0.60966
C         57.31210        61.26870         0.43844
C         56.24393        60.54897        -0.35510
C         57.40018        62.74101         0.13275
C         56.24042        63.43704        -0.28861
C         57.46463        65.55509        -0.16219
C         56.29973        64.86028        -0.45309
C         57.54397        67.03623        -0.48157
C         56.21014        67.73480        -0.31615
C         57.37955        69.85704         0.23945
C         56.17338        69.12943        -0.03239
C         57.33723        71.24287         0.42650
C         56.08589        71.92289         0.42246
C         57.25892        74.04980         1.01956
C         56.04731        73.36743         0.65474
C         58.75136        54.83764        -0.03485
C         59.88767        56.93644         0.46205
C         58.79355        56.25283        -0.04372
C         59.84047        58.39262         0.82379
C         58.75336        59.15773         0.10794
C         59.80141        61.27203         0.76978
C         58.65123        60.59156         0.47793
C         59.79424        62.73030         0.81121
C         58.59796        63.43488         0.40990
C         59.82961        65.56100         0.58309
C         58.62781        64.85418         0.27853
C         59.81975        66.99595         0.60154
C         58.66408        67.73625         0.24778
C         59.75953        69.80204         0.99733
C         58.62661        69.12427         0.43799
C         59.75056        71.24291         1.17512
C         58.63378        72.02274         0.51143
C         59.61910        74.04881         1.66605
C         58.47348        73.41058         1.08191
C         61.12949        59.15803         0.74361
C         62.25333        61.29353         1.13873
C         61.09584        60.56022         0.86350
C         62.16860        62.70476         1.64020
C         60.96283        63.43386         1.09394
C         62.22384        65.57513         1.18205
C         60.99286        64.85569         0.98510
C         62.21587        66.95965         1.17672
C         60.98240        67.67838         1.04925
C         62.06961        69.72376         1.95860
C         60.90778        69.06622         1.32444
C         61.93609        71.16295         2.43607
C         60.79784        71.90936         1.77541
C         61.84010        73.99231         2.82056
C         60.74531        73.33549         2.00531
C         63.45491        63.47397         1.50038
C         64.69025        65.60256         1.59410
C         63.47944        64.84542         1.38841
C         64.71617        66.99379         1.57096
C         63.50126        67.73736         1.04166
C         64.64315        69.93687         1.67022
C         63.40056        69.08628         1.73625
C         64.49159        71.29340         2.31495
C         63.24987        71.92911         2.40747
C         64.36036        74.04527         2.87990
C         63.19170        73.32248         2.68748
C         65.85185        67.74268         1.97697
C         66.98988        69.88074         2.48526
C         65.86607        69.15213         2.09402
C         66.94823        71.30497         2.65238
C         65.68898        72.00414         2.59338
C         66.83430        74.09889         3.16041
C         65.62738        73.39903         2.88116
C         68.10778        72.03814         2.95808
C         68.04499        73.42203         3.19056
O         52.23866        52.24174        -2.91160
O         44.91026        61.08947        -0.27156
O         50.31876        63.10384        -0.17846
O         24.69305        71.72336         1.59924
O         62.74978        68.93733         3.02679
O         39.82923        60.89427         0.37902
O         48.67894        63.06135        -3.58083
O         42.07926        67.46130        -3.28260
O         36.46917        65.46071         0.59264
O         35.61274        61.96748         0.92926
O         58.68992        59.08081        -1.35792
O         45.92948        56.74070         0.25563
O         29.98389        61.81146        -1.43904
O         46.93894        60.57296        -3.41929
O         46.29172        64.26968        -3.71608
O         51.05190        45.67912        -1.58107
O         44.88699        36.24931         1.37283
O         48.47912        72.03767        -2.90153
O         35.01975        53.50647        -3.08394
O         36.73399        67.38627        -2.42702
O         34.34447        56.86877        -2.81695
H         33.85061        56.29336        -3.43924
O         63.67836        67.91779        -0.38701
H         64.30303        68.67178        -0.51720
O         47.18560        54.39009        -3.28536
H         47.96094        54.31548        -3.88164
O         50.65235        44.78257         2.70241
H         49.86076        44.63427         3.28273
O         61.92679        75.38874         2.52791
H         62.14331        75.49109         1.57874
O         43.27527        72.88087         1.09309
H         43.91166        72.33012         1.59499
O         52.18482        66.47583         0.67822
H         52.06685        67.26629         1.24536
O         43.27008        74.36692        -2.24159
H         44.04645        73.80324        -2.46883
O         28.43741        63.89272        -1.26636
H         28.47723        63.08907        -1.83266
O         52.19053        61.24507         0.70364
H         51.42042        61.85633         0.81470
O         47.90801        43.51176        -0.78787
H         47.34301        43.91785        -1.48544
O         43.77519        43.08094         3.24270
H         43.82458        42.29596         3.82960
O         46.95362        54.33337         0.35284
H         46.48220        54.93016         0.97787
O         29.85282        60.43646         2.01490
H         29.29388        59.79829         2.50581
O         29.97701        68.82996         3.56398
H         29.40819        68.09151         3.89913
O         36.64991        51.57632        -3.40945
H         36.21281        52.30898        -3.90666
O         47.60633        40.58946         3.78485
H         48.34127        41.21332         3.97049
O         48.47308        74.41447        -2.22863
H         49.07108        74.12668        -2.95236
O         58.00958        56.78314        -2.20707
H         58.63693        57.51231        -2.42627
O         53.28452        71.66888         1.89468
H         53.99294        72.12805         2.39445
O         47.35417        69.77949        -3.53191
H         47.79105        70.53645        -3.98703
O         53.47228        54.78354         0.71251
H         54.12960        55.33097         1.19201
O         28.64962        66.43553         3.46816
H         29.40300        65.80601         3.46781
O         41.49019        50.76917         0.67625
H         41.47438        49.86344         1.05485
O         64.83832        70.24882         0.24125
H         65.67658        70.75394         0.16677
O         34.74608        67.64861         1.69470
H         33.99758        67.85244         2.29462
O         61.56791        71.10589         3.84839
H         62.06626        70.34561         4.22882
O         48.21189        44.41865         2.72407
H         47.79994        45.29164         2.53316
O         50.39564        56.86485         0.27387
H         49.58332        57.21300         0.69733
O         55.55522        65.74111        -2.52183
H         54.73670        65.99861        -3.01716
O         39.13924        54.96868        -3.57211
H         39.09922        54.05007        -3.91788
O         52.86700        49.48324        -2.88705
H         52.84366        50.36102        -3.33892
O         56.75024        51.89623        -2.53194
H         56.89076        52.81664        -2.84275
O         49.14462        45.57843        -1.41450
H         48.77311        46.04943        -2.19495
O         45.97160        72.95609        -2.75806
H         46.73760        73.56272        -2.91746
O         33.00134        65.94944        -1.84539
H         32.47796        65.25031        -2.30878
O         56.79714        61.19222         1.82723
H         57.48929        61.56066         2.41719
O         57.87988        67.13395        -1.90323
H         57.16295        66.65278        -2.39268
O         31.60551        63.68257        -2.13651
H         31.12815        62.89490        -2.49407
O         33.59950        72.41728        -1.38422
H         34.27717        72.96676        -1.83299
O         34.16206        58.93074         1.31573
H         34.23430        57.96047         1.48317
O         47.62588        50.32450         0.79762
H         46.81917        49.91429         1.17687
O         61.94544        62.59709         3.10886
H         61.90244        63.51310         3.45847
O         59.42229        58.42415         2.24653
H         60.17850        58.10898         2.78539
O         51.35672        56.54365        -3.22263
H         52.12557        56.12215        -3.66068
O         41.41264        47.25303        -2.42843
H         40.59469        46.72328        -2.54293
O         50.18860        46.98215         1.70474
H         50.60812        46.53826         2.48667
O         49.16885        67.77469        -3.66009
H         48.43202        68.33188        -4.01968
O         27.00471        72.30105         0.60298
H         26.05075        72.47019         0.42120
O         34.09253        64.94211         1.48513
H         35.03246        64.91915         1.78624
O         36.18620        59.22068        -2.75649
H         35.70841        58.38917        -2.99407
O         52.90188        66.10146        -2.90675
H         52.10329        66.58918        -3.20929
O         46.54828        45.74436        -1.99597
H         45.71492        45.99433        -2.45297
O         59.06903        72.22142        -0.88179
H         59.15073        71.33347        -1.29149
O         35.17821        56.40001         0.68312
H         36.00567        56.57509         1.18083
O         46.52495        38.00791         0.40077
H         46.14351        37.12834         0.16946
O         40.31266        57.52838        -3.21365
H         40.01338        56.75991        -3.75486
O         40.42559        57.93156         0.43397
H         40.38449        58.74964         0.97908
O         46.24284        51.76937        -3.26100
H         46.28739        52.68230        -3.63752
O         46.83985        69.27573         0.03257
H         46.18044        68.75159         0.53395
H         24.02017        74.71355         4.88662
H         26.23477        74.85798         3.84217
H         28.49093        75.00805         2.97925
H         30.80880        75.12531         2.14517
H         33.24170        75.18179         1.51336
H         35.66017        75.17406         0.75037
H         37.97778        75.18016        -0.02268
H         40.35330        75.16029        -0.51471
H         42.75250        75.07762        -0.34992
H         45.28388        74.55580         0.83036
H         47.69291        74.58552         0.65461
H         50.12918        75.24397        -0.33154
H         52.48305        75.17819         0.01628
H         54.84392        75.14867         0.63149
H         57.18279        75.10167         1.33679
H         59.54551        75.10822         1.95636
H         61.53604        73.91337         3.90207
H         64.30092        75.12578         3.07785
H         66.79593        75.17786         3.36731
H         22.70929        69.02538         3.63644
H         21.76378        71.02545         4.82050
H         22.00431        73.39658         5.49288
H         24.87262        64.92709         2.11561
H         23.75216        67.00451         2.74308
H         27.18811        60.76516         1.20778
H         25.97131        62.81695         1.52266
H         29.44009        56.47937        -0.45768
H         28.25102        58.59393         0.16483
H         31.88357        52.28136        -0.90691
H         30.64314        54.39363        -0.95992
H         34.31898        48.07588        -0.38310
H         33.10766        50.16228        -0.73522
H         36.76787        43.94688         0.70500
H         35.55340        45.98688         0.11245
H         39.17747        39.84686         1.95786
H         37.97026        41.90455         1.33187
H         41.61564        35.86680         3.51127
H         40.39291        37.80860         2.64937
H         45.03675        32.90470         5.10525
H         42.87111        33.97891         4.57728
H         47.19354        33.93707         4.44450
H         48.44589        35.79071         3.41917
H         49.73453        37.64050         2.43225
H         50.92367        39.67103         1.51749
H         52.09665        41.67282         0.84086
H         53.41392        43.62471         0.37582
H         54.76239        45.87356         0.28501
H         55.97167        47.93543        -0.08765
H         57.24750        49.99150        -0.37393
H         58.52724        52.18506        -0.26946
H         59.62320        54.27589         0.33499
H         60.71376        56.34631         0.89448
H         62.09091        58.62712         0.82205
H         63.22084        60.77173         1.20192
H         64.39290        62.93072         1.69560
H         65.59716        65.05176         1.89120
H         66.75915        67.19155         2.27348
H         67.93219        69.35370         2.69972
H         69.07477        71.51833         3.01852
H         68.97009        73.97064         3.41742
