         349
 CSIRO Nanostructure Databank - Neutral Graphene Oxide Data Set
C          1.33909         3.35675         0.35376
C          0.08420         4.00836         0.31158
C          1.19588         6.23585         0.42567
C         -0.01956         5.37414         0.22158
C          1.09130         7.64791        -0.17001
C         -0.06773         8.45288         0.38316
C          1.12788        10.53153        -0.22625
C         -0.08334         9.79094         0.31093
C          1.12075        12.02705         0.04303
C         -0.06879        12.75684        -0.07112
C          1.07868        14.84557         0.44372
C         -0.09581        14.13840         0.12249
C          1.05796        16.31692         0.59737
C         -0.14250        17.05492         0.67473
C          1.05303        19.17686         0.44332
C         -0.14527        18.44439         0.59944
C          1.06334        20.62116         0.16530
C         -0.09534        21.32323        -0.12886
C          1.11892        23.43764        -0.37582
C         -0.05724        22.70479        -0.43092
C          1.09197        24.88181        -0.83073
C          0.04723        25.69011        -0.09607
C          1.27041        27.78394        -0.44898
C          0.14383        27.04538         0.02285
C          1.31163        29.18629        -0.40479
C          3.71806         3.38843        -0.19734
C          2.54079         4.06978         0.08175
C          3.59563         6.26602        -0.27640
C          2.47254         5.53554        -0.01152
C          3.59443         7.72741        -0.17082
C          2.41097         8.39142         0.00066
C          3.64091        10.59955         0.14336
C          2.35931         9.84472         0.38619
C          3.60556        12.00169         0.30942
C          2.32624        12.71965         0.32882
C          3.52515        14.86000         0.98773
C          2.29110        14.12040         0.52509
C          3.56288        16.29019         0.38758
C          2.26727        17.04784         0.56898
C          3.55408        19.19262         0.19917
C          2.26983        18.45527         0.49998
C          3.50154        20.67501         0.44580
C          2.31801        21.35505         0.19886
C          3.56543        23.51599        -0.00174
C          2.34347        22.79233        -0.01534
C          3.56613        24.93429        -0.33897
C          2.43049        25.58176        -0.73627
C          3.72466        27.76114        -0.92360
C          2.41162        27.04526        -1.12498
C          3.70702        29.23025        -0.98207
C          2.45736        29.89670        -0.74579
C          6.21339         3.44917        -0.70730
C          4.86119         4.11656        -0.85801
C          6.05937         6.34658        -0.94282
C          4.92704         5.55045        -0.29094
C          6.04273         7.81605        -0.55800
C          4.86540         8.46151        -0.25277
C          6.07023        10.65065        -0.18154
C          4.84832         9.91084        -0.09311
C          6.04911        12.02458         0.17542
C          4.83625        12.71256         0.40526
C          6.00858        14.84354         0.70451
C          4.83259        14.13933         0.68208
C          6.04106        16.30166         0.95552
C          4.76534        17.06829         0.89200
C          5.98156        19.21643         0.81886
C          4.80938        18.53441         0.70145
C          6.04553        20.68764         0.88132
C          4.72965        21.43948         0.70595
C          6.05834        23.47892         0.26158
C          4.79709        22.85650         0.31504
C          6.11222        24.95623         0.12196
C          4.83392        25.69635        -0.16997
C          6.18524        27.85923        -0.47385
C          4.88013        27.09971        -0.65654
C          6.19734        29.21367        -1.27879
C          4.88494        29.92680        -1.07301
C          8.68220         3.55563        -0.58773
C          7.39950         4.16526        -0.60465
C          8.62684         6.41910        -0.52976
C          7.35199         5.65320        -0.51322
C          8.58798         7.83870        -0.98426
C          7.27549         8.58212        -0.85569
C          8.52488        10.74847        -0.61815
C          7.30566        10.02440        -0.56168
C          8.55487        12.11557        -0.26884
C          7.33830        12.71372         0.30421
C          8.49862        14.99711         0.06506
C          7.32221        14.18609         0.58779
C          8.60314        16.34832         0.70459
C          7.29989        17.04804         0.66387
C          8.54086        19.24279         0.89654
C          7.27761        18.51858         0.70769
C          8.56205        20.60816         0.70939
C          7.31469        21.36376         0.57568
C          8.56911        23.41050         0.00524
C          7.28647        22.73791         0.33889
C          8.61040        24.88129        -0.14124
C          7.40178        25.61445        -0.20832
C          8.64711        27.43835        -1.11131
C          7.40433        26.94694        -0.69167
C          8.64774        29.66249        -1.08574
C          7.36355        30.07175        -0.81161
C         11.16132         3.62970        -0.51548
C          9.90702         4.29115        -0.53822
C         11.13667         6.44518        -0.43245
C          9.91971         5.71376        -0.53795
C         11.12737         7.88258        -0.53863
C          9.88870         8.57245        -0.95474
C         11.07017        10.78135        -0.35984
C          9.82761        10.07046        -0.88148
C         10.98282        12.21804        -0.87087
C          9.76621        12.88670        -0.26060
C         11.01230        14.90302         0.51533
C          9.77443        14.21909         0.10245
C         11.04833        16.34663         0.84510
C          9.77143        17.02600         0.91928
C         11.06856        19.17862         1.22713
C          9.74227        18.46850         1.39195
C         11.03053        20.62556         1.05255
C          9.84571        21.28895         0.74351
C         11.11994        23.45858         0.36729
C          9.87419        22.67665         0.23815
C         11.10382        24.84575         0.07076
C          9.86506        25.52812        -0.25084
C         11.04441        27.72444        -0.56963
C          9.88756        26.89872        -0.67130
C         11.07530        29.18158        -0.67527
C          9.92791        30.05192        -0.63181
C         13.58964         3.50515        -0.36129
C         12.37551         4.32055        -0.31722
C         13.50808         6.63887         0.25517
C         12.36682         5.74372        -0.22717
C         13.58470         7.97103        -0.42546
C         12.34225         8.64543        -0.55204
C         13.58565        10.74204        -0.79144
C         12.35592        10.06100        -0.70795
C         13.60347        12.23009        -0.79805
C         12.30178        12.97026        -0.70022
C         13.51986        15.00765         0.20333
C         12.30560        14.21501         0.12470
C         13.48296        16.22171         0.88383
C         12.25700        16.99436         1.14042
C         13.38022        19.33207         2.03990
C         12.25522        18.46396         1.39087
C         13.42978        20.73985         1.48322
C         12.28881        21.37542         1.06160
C         13.52699        23.55181         0.79191
C         12.31135        22.80441         0.73622
C         13.50857        24.94800         0.51964
C         12.30641        25.59242         0.15666
C         13.55948        27.82544        -0.08560
C         12.25445        27.06786        -0.02777
C         13.57031        29.13589        -0.76477
C         12.32535        29.83482        -0.76434
C         16.09445         3.33368        -0.00408
C         14.78052         3.83013         0.23617
C         16.03829         6.44792        -0.15387
C         14.85281         6.01482         0.36703
C         16.06400         7.79682        -0.86912
C         14.81108         8.62405        -0.60434
C         16.09692        10.76254        -0.53610
C         14.81613        10.03368        -0.75163
C         16.06064        12.26212        -0.52885
C         14.87464        12.94330        -0.49526
C         16.05230        15.23025        -0.10816
C         14.77629        14.43020        -0.32353
C         15.98245        16.35701         0.85209
C         14.76134        16.66284         1.37381
C         15.97066        19.25306         1.79356
C         14.75104        18.71744         2.10200
C         16.00471        20.73430         1.73702
C         14.69638        21.48861         1.59915
C         16.01556        23.47129         0.92314
C         14.77417        22.87199         1.08819
C         16.07440        24.93674         0.71725
C         14.78095        25.70721         0.63175
C         16.07445        27.57297        -0.67631
C         14.85680        27.10102         0.06714
C         15.97177        28.82725        -1.59114
C         14.71519        29.62931        -1.34236
C         18.47714         3.45515         0.10140
C         17.22298         4.16489         0.06458
C         18.46728         6.24520        -0.43463
C         17.24639         5.61900        -0.10712
C         18.53784         7.66994        -0.80258
C         17.41308         8.51472        -0.78138
C         18.65854        10.88784        -0.79328
C         17.43232        10.01909        -0.63817
C         18.64210        12.25397        -0.39567
C         17.35064        12.99309        -0.47607
C         18.59030        15.17148         0.22123
C         17.34722        14.49128        -0.27658
C         18.50457        16.32521         1.17239
C         17.19652        17.00048         1.45119
C         18.44130        19.15359         1.65218
C         17.22334        18.48529         1.69327
C         18.49961        20.66822         1.86741
C         17.26241        21.39391         1.40344
C         18.53300        23.40161         0.83674
C         17.27136        22.74669         1.07275
C         18.61151        24.86586         0.44823
C         17.28246        25.49708         0.07586
C         18.44592        26.99799        -1.41766
C         17.23977        26.61895        -0.73974
C         18.43228        29.19063        -1.70460
C         17.21019        29.69292        -1.36283
C         19.66622         4.09318        -0.04489
C         20.93570         6.05318        -0.68313
C         19.69920         5.48839        -0.37262
C         20.98957         7.35282        -1.20892
C         19.82889         8.09854        -1.28237
C         21.07499        11.14102        -1.23582
C         19.87605        10.42337        -1.31669
C         21.07292        12.39353        -0.63470
C         19.85282        12.98775        -0.27813
C         20.98503        14.94916         0.99750
C         19.88303        14.41395         0.16936
C         20.95963        16.25019         1.41726
C         19.77082        17.06239         1.35922
C         20.93206        19.20479         1.60011
C         19.71712        18.44987         1.57495
C         20.95384        20.58007         1.44454
C         19.76621        21.33359         1.38781
C         20.99550        23.40192         0.68304
C         19.74329        22.70180         0.99419
C         21.01292        24.52866        -0.05183
C         19.71642        25.06147        -0.60791
C         20.85313        27.31517        -1.28214
C         19.72611        26.50096        -1.10485
C         20.84953        28.73930        -1.37712
C         19.77602        29.61467        -1.41876
O         14.80097         4.88384         1.18619
O         17.48249        13.95115        -1.60793
O          7.82976         8.13204        -2.19411
O          9.27179        22.75214        -1.11538
O         13.01921        12.97841        -1.96261
O          5.36757        25.62824         1.22068
O         11.74275        14.03352         1.46581
O          7.60929        13.26935         1.67497
O         17.81125        16.10353         2.45665
O          8.73407        28.53449        -1.96051
O         12.78862        27.80596         1.14947
O         15.33849        21.33572         2.92473
O         16.79484        10.29866         0.68245
O         15.50001        25.62333         1.90040
O          5.32028        21.20858         2.04619
O          5.34786        16.69159         2.19741
O         15.85516        27.93583         0.72710
O          7.23812        17.77159        -0.63910
O          7.86925         6.21221         0.74608
O         14.70659        17.40150         2.56294
O         18.39289        27.96093        -2.43122
O         19.51740        15.40915        -0.87318
O         19.91106         9.24895        -2.06550
O         15.33238        15.32136        -1.36478
O         10.04431         9.42637        -2.15576
O         15.94945         7.51732        -2.31408
H         16.70482         6.94320        -2.56491
O          0.87952         7.50631        -1.59701
H          0.96114         8.41340        -1.98070
O         13.12344         6.96372         1.64670
H         13.32657         6.16114         2.17805
O          5.94125         6.29109        -2.38475
H          6.60051         6.94140        -2.74504
O         12.93225        19.43586         3.43392
H         13.33683        18.68988         3.92758
O         11.01408        10.83689         1.08587
H         11.27933         9.96549         1.44908
O          1.31270         6.42227         1.87396
H          1.46546         5.54046         2.27489
O         15.87199        28.39413        -2.96577
H         16.77849        28.12865        -3.25417
O          3.69405        19.05896        -1.28682
H          2.87656        19.42741        -1.68821
O          6.26372        28.92461        -2.68959
H          7.20476        28.72552        -2.90847
O         10.66647        12.17159        -2.27425
H         11.50626        12.29881        -2.77602
O         19.33855        24.23706        -1.74583
H         20.06293        24.27501        -2.40434
O         18.50280        20.86476         3.33138
H         17.57980        20.75875         3.65109
O          4.52462         4.08823        -2.27136
H          5.00248         4.83281        -2.71266
O          2.13879        27.11083        -2.55999
H          1.35200        26.53370        -2.72342
O          1.20192        10.33903        -1.66977
H          0.51621        10.90241        -2.08609
O          2.13807         9.87956         1.82948
H          2.78599         9.27940         2.25417
O          3.37607        14.94587         2.42207
H          4.15969        15.43229         2.77804
O          8.21993        15.23487        -1.35701
H          7.94175        16.17209        -1.48007
O         19.03165        25.61001         1.62678
H         18.28772        25.61365         2.26690
O          6.26142        28.22689         0.92457
H          6.03452        27.41663         1.44513
O          3.76412        16.14913        -1.04394
H          3.81174        17.06045        -1.42452
O          5.26309         5.37777         1.11352
H          5.86883         6.09716         1.39564
O          9.55789        18.42224         2.85576
H         10.43514        18.53728         3.28329
O          0.67818        24.85574        -2.24786
H          1.28062        24.24167        -2.71912
H          1.37594         2.26065         0.43529
H         -0.82713         3.39133         0.31141
H         -1.01069         5.84558         0.15098
H         -0.93709         7.91470         0.79153
H         -0.94710        10.35733         0.69208
H         -1.00605        12.23791        -0.32117
H         -1.05226        14.66824         0.01565
H         -1.10586        16.53373         0.76198
H         -1.10976        18.97010         0.62611
H         -1.06574        20.80967        -0.16215
H         -0.98877        23.20409        -0.73234
H         -0.82915        25.16268         0.30800
H         -0.66516        27.60220         0.52184
H          0.41482        29.73389        -0.07573
H          3.73581         2.28822        -0.14160
H          2.44485        30.99611        -0.72699
H          6.26248         2.35402        -0.81925
H          4.87162        31.02763        -1.06507
H          8.74051         2.45681        -0.61891
H          7.17955        30.89723        -0.11041
H         11.18463         2.53194        -0.58179
H         10.08827        31.07808        -0.26986
H         13.55125         2.60126        -0.98762
H         12.33181        30.91169        -0.99063
H         16.24415         2.27301        -0.25773
H         14.67278        30.61550        -1.83030
H         18.44829         2.37106         0.28170
H         17.12161        30.62025        -0.78091
H         20.61619         3.54398         0.01934
H         21.84672         5.44334        -0.61184
H         21.92202         7.75924        -1.62033
H         21.99388        10.70931        -1.65132
H         22.00731        12.96318        -0.54298
H         21.87531        14.32968         1.17685
H         21.85712        16.66546         1.89953
H         21.88738        18.66279         1.60344
H         21.92765        21.06894         1.30181
H         21.94163        22.98846         1.05995
H         21.96673        25.02154        -0.28991
H         21.84361        26.86417        -1.11454
H         21.84185        29.20334        -1.25726
H         19.96033        30.68132        -1.22392
