         490
 CSIRO Nanostructure Databank - Neutral Graphene Oxide Data Set
C         37.49193        50.21462         0.50844
C         36.29971        50.91084         0.40578
C         37.49739        52.88081        -0.31960
C         36.30261        52.25466        -0.00929
C         40.03814        48.74910         0.68068
C         39.98517        50.11558         0.30775
C         38.73069        50.83029         0.19787
C         39.98660        52.83667        -0.54618
C         38.73259        52.18933        -0.23152
C         40.01415        54.22083        -1.02783
C         42.47199        48.70239         0.47426
C         41.23451        48.06577         0.75904
C         42.44035        50.06434         0.10940
C         41.21044        50.78266         0.01755
C         42.46634        52.88739        -0.81161
C         41.19040        52.15724        -0.40125
C         42.38226        54.35016        -0.37048
C         41.13967        54.95740        -0.98259
C         44.95901        45.93223         1.18099
C         43.77252        46.59827         0.99778
C         44.96633        48.63508         0.46323
C         43.74050        47.97868         0.62349
C         44.98694        50.02118        -0.02367
C         43.69879        50.75312        -0.24154
C         44.88793        52.94842        -0.17242
C         43.73272        52.23691        -0.30825
C         44.90498        54.40068        -0.41109
C         43.68339        55.09026        -0.61890
C         44.91277        57.16007        -0.94157
C         43.70479        56.46683        -0.86532
C         47.49697        44.46566         1.15050
C         47.44596        45.88405         1.21023
C         46.22231        46.59120         1.07249
C         47.43247        48.70420         0.56731
C         46.22211        47.99286         0.73632
C         47.42876        50.11027         0.26191
C         46.21811        50.79537         0.11946
C         47.43100        52.94962        -0.11170
C         46.15648        52.27909         0.32777
C         47.42329        54.45810        -0.04346
C         46.12499        55.11680        -0.45572
C         47.40813        57.30949        -0.87642
C         46.12866        56.50433        -0.70815
C         47.46458        58.58988        -0.08341
C         49.95262        44.41077         1.04692
C         48.68303        43.76566         1.09114
C         50.00886        45.84201         1.56355
C         48.70460        46.62750         1.37540
C         49.97415        48.78713         0.63213
C         48.71109        48.11244         0.98781
C         49.92211        50.11320         0.20262
C         48.67064        50.81703         0.11847
C         49.85726        52.88591        -0.61255
C         48.61053        52.22977        -0.15097
C         49.85597        54.35404        -0.91731
C         48.63250        55.13901        -0.63895
C         49.94305        57.21091        -0.57540
C         48.67027        56.50014        -0.70962
C         49.91876        58.62892        -0.23328
C         48.64187        59.23052         0.10088
C         52.34903        41.56960         0.67513
C         51.17138        42.26617         0.79094
C         52.32427        44.41327         0.21696
C         51.12006        43.69418         0.77488
C         52.48474        45.84994         0.68408
C         51.29745        46.62295         1.16699
C         52.46871        48.71478         0.18770
C         51.30656        48.16445         1.03551
C         52.39381        50.06353        -0.17728
C         51.16443        50.82146        -0.13127
C         52.32907        52.89001        -0.96935
C         51.13444        52.16645        -0.46903
C         52.39721        54.35727        -0.88141
C         51.14938        55.14284        -1.17656
C         52.36616        57.12207         0.01788
C         51.12173        56.51119        -0.56604
C         52.38937        58.61631        -0.21048
C         51.12623        59.33533        -0.22874
C         52.35692        61.44870        -0.34488
C         51.18360        60.77931        -0.21315
C         54.90030        40.08630         0.72411
C         54.82155        41.47083         0.41516
C         53.61831        42.21284         0.46281
C         54.80349        44.35391         0.09012
C         53.62446        43.64487         0.30265
C         54.81457        45.76846        -0.11649
C         53.67121        46.54391         0.10942
C         54.90154        48.57701        -0.52136
C         53.66675        47.95426        -0.05759
C         54.93877        50.05151        -0.55541
C         53.64805        50.79572        -0.46593
C         54.90215        52.93390        -1.34332
C         53.60518        52.14614        -1.11033
C         54.88207        54.32893        -0.77218
C         53.62875        55.02031        -0.69409
C         54.86055        57.08997        -0.23511
C         53.65074        56.42946        -0.39559
C         54.82365        58.52453         0.23389
C         53.58920        59.27224        -0.20434
C         54.97921        61.45341        -0.22876
C         53.63845        60.72973        -0.44319
C         55.02276        62.89602         0.01357
C         57.36588        40.09073         0.61370
C         56.10198        39.41572         0.78102
C         57.36495        41.44768         0.27132
C         56.07195        42.12927        -0.12344
C         57.40151        44.33541        -0.01804
C         56.09542        43.61470         0.16938
C         57.38013        45.84020        -0.26838
C         56.00779        46.34300        -0.84581
C         57.30598        48.52430        -1.24484
C         56.02864        47.85590        -0.85027
C         57.36167        50.03753        -1.28036
C         56.13004        50.78764        -1.02264
C         57.39494        52.88385        -0.90677
C         56.15176        52.15902        -1.01541
C         57.37299        54.27514        -0.64889
C         56.10700        54.99351        -0.58163
C         57.34248        57.07941        -0.00467
C         56.11139        56.39462        -0.29225
C         57.32185        58.48465         0.19880
C         56.13279        59.25731         0.07839
C         57.40681        61.35658         0.40613
C         56.16898        60.65543         0.14090
C         57.40460        62.79157         0.56426
C         56.18568        63.50871         0.40032
C         59.87726        37.41203         1.49687
C         58.66620        38.04220         1.24678
C         59.85526        40.09635         0.69132
C         58.61660        39.39248         0.84113
C         59.82644        41.46123         0.31233
C         58.60122        42.16273         0.09330
C         59.84730        44.15905        -0.87655
C         58.60929        43.53870        -0.26482
C         59.87135        45.67436        -0.85841
C         58.55527        46.34136        -1.14052
C         59.80412        48.53800        -1.06898
C         58.60218        47.84087        -1.08306
C         59.82601        49.99163        -1.02553
C         58.63534        50.73208        -1.06771
C         59.84510        52.83006        -0.63199
C         58.62234        52.14630        -0.86576
C         59.83030        54.23548        -0.36291
C         58.59650        54.95908        -0.34883
C         59.82677        56.97815         0.36330
C         58.59238        56.34761         0.00475
C         59.79281        58.36502         0.89175
C         58.53585        59.17011         0.66477
C         59.90087        61.35670         0.46437
C         58.58690        60.63525         0.60122
C         59.83316        62.77029         0.96868
C         58.62473        63.44763         0.98897
C         59.75755        65.51379         1.68167
C         58.60498        64.82604         1.45119
C         62.43772        35.88532         1.33007
C         62.36868        37.32073         1.80499
C         61.11369        38.07619         1.35200
C         62.35026        40.17276         0.77672
C         61.10962        39.43547         0.97547
C         62.35065        41.48638         0.38092
C         61.08257        42.22416         0.30478
C         62.38282        44.24355        -0.62102
C         61.10035        43.62270        -0.22344
C         62.33627        45.62271        -1.22405
C         61.04492        46.36811        -0.96892
C         62.28696        48.51812        -1.04780
C         61.07043        47.82200        -1.03267
C         62.29636        49.95958        -0.96428
C         61.07053        50.68221        -0.87399
C         62.30668        52.77075        -0.43771
C         61.07229        52.09340        -0.65834
C         62.29648        54.17764        -0.13896
C         61.05725        54.90384        -0.06579
C         62.33419        56.85601         0.86485
C         61.04498        56.28138         0.29317
C         62.38222        58.38560         1.00992
C         61.07886        59.12875         1.13202
C         62.40106        61.35573         0.80705
C         61.11051        60.62437         1.01399
C         62.36911        62.79337         0.97547
C         61.09292        63.38996         1.53513
C         62.22717        65.63173         1.48678
C         61.05161        64.90087         1.51577
C         62.23656        67.07951         1.66804
C         64.94358        35.84671         1.03464
C         63.58090        35.21438         1.13465
C         64.91416        37.33977         1.25139
C         63.66775        38.06559         1.50971
C         64.89540        40.08453         0.51079
C         63.65248        39.52015         1.04772
C         64.84889        41.36917        -0.21735
C         63.56177        42.12645        -0.18667
C         64.84436        44.26005        -0.68439
C         63.56721        43.57929        -0.48894
C         64.82139        45.69583        -0.83890
C         63.59162        46.40212        -0.93654
C         64.80331        48.50893        -1.07343
C         63.56526        47.80266        -1.00482
C         64.79501        49.99305        -1.34170
C         63.52413        50.67456        -0.88520
C         64.80606        52.72636        -0.17483
C         63.52326        52.03337        -0.56371
C         64.74152        54.18707        -0.53869
C         63.51946        54.90840        -0.11739
C         64.77316        57.02164         0.00787
C         63.56199        56.27439         0.17601
C         64.77828        58.45275         0.10080
C         63.60200        59.18257         0.63298
C         64.90441        61.39582         0.48864
C         63.56545        60.67524         0.54765
C         64.77841        62.94046         0.43760
C         63.52865        63.55863         0.85461
C         64.65618        65.75286         1.19706
C         63.49678        64.98719         1.17926
C         64.71937        67.11174         1.87004
C         63.37257        67.78361         1.83415
C         67.25794        33.07267         1.73087
C         66.11995        33.77535         1.97070
C         67.37308        35.87459         1.43763
C         66.08361        35.26751         1.93512
C         67.42742        37.38062         1.38008
C         66.09062        38.04333         1.11846
C         67.37199        40.10850         0.47581
C         66.09544        39.43530         0.74046
C         67.32746        41.61979         0.34771
C         66.16325        42.06197        -0.56306
C         67.29580        44.29959        -0.71188
C         66.06237        43.58233        -0.60023
C         67.29029        45.69563        -0.93103
C         66.04704        46.41003        -0.94567
C         67.27306        48.55141        -1.54029
C         66.01641        47.82424        -1.10985
C         67.29777        49.99638        -1.10461
C         66.08167        50.68489        -0.93130
C         67.30947        52.77359        -0.58871
C         66.08218        52.05714        -0.63297
C         67.31257        54.22804        -0.56839
C         66.01811        54.93731        -0.64842
C         67.18961        57.09244        -0.48062
C         65.98484        56.37985        -0.37834
C         67.17169        58.51267        -0.39876
C         65.91122        59.17568        -0.23466
C         67.14872        61.22731        -0.71621
C         65.78196        60.64251        -0.58360
C         67.18885        63.35248        -0.14613
C         65.89025        63.77330         0.35165
C         67.10947        65.81690         0.89519
C         65.89581        65.14493         0.81394
C         67.12617        67.28565         0.97664
C         65.82190        68.03142         1.28946
C         67.31383        69.82029         2.30315
C         66.09357        69.22998         2.17200
C         69.73945        31.53302         1.46354
C         69.72781        32.94679         1.30567
C         68.51053        33.70311         1.40586
C         69.78363        35.80165         0.88726
C         68.52717        35.12962         1.22742
C         69.80023        37.18704         0.59440
C         68.47988        37.89354         0.39972
C         69.86359        40.13486         0.45326
C         68.53730        39.41083         0.44031
C         69.78485        41.49137        -0.22578
C         68.60352        42.20041        -0.22903
C         69.74075        44.25603        -0.95703
C         68.55422        43.58343        -0.67039
C         69.76619        45.68378        -1.05809
C         68.53361        46.41527        -1.06773
C         69.77816        48.52254        -1.18526
C         68.54888        47.81602        -1.20732
C         69.79406        49.95988        -1.12840
C         68.53133        50.67592        -0.98850
C         69.81305        52.77635        -0.60735
C         68.53053        52.06724        -0.72783
C         69.79166        54.32422        -0.62455
C         68.46896        54.97100        -0.69142
C         69.59755        57.15048        -1.01045
C         68.43650        56.41984        -0.75472
C         69.61607        58.57497        -0.80510
C         68.39490        59.22197        -0.41961
C         69.59429        61.41506        -0.04159
C         68.33969        60.66360        -0.32614
C         69.64517        62.90754         0.43394
C         68.36794        63.72328         0.40419
C         69.66910        65.79774         0.71318
C         68.40063        65.05054         1.12229
C         69.71671        67.16709         0.96527
C         68.46121        67.94818         1.13456
C         69.78483        69.93057         1.81139
C         68.53153        69.27946         1.76096
C         69.90905        71.26215         2.32774
C         72.13870        31.47357         1.19186
C         70.91828        30.81054         1.40599
C         72.15808        32.85162         1.02737
C         70.97131        33.61714         1.07408
C         72.20113        35.74877         0.60273
C         70.99338        35.05699         0.86514
C         72.21230        37.10608         0.34137
C         71.00803        37.85127         0.30240
C         72.07769        39.86519        -0.66147
C         71.01432        39.27453        -0.02999
C         72.09259        41.26107        -0.98131
C         70.99015        42.05723        -0.78357
C         72.23387        44.25466        -0.94046
C         70.99049        43.48115        -1.29765
C         72.22864        45.60469        -0.92997
C         71.00582        46.37522        -1.09444
C         72.23516        48.53967        -1.20424
C         71.01684        47.79792        -1.14985
C         72.23383        49.91214        -1.23079
C         71.01909        50.65556        -1.14697
C         72.17608        52.88068        -1.24631
C         71.05110        52.10775        -1.02741
C         72.12360        54.30621        -1.34530
C         70.96925        55.02254        -1.14558
C         72.01485        57.29708        -1.66603
C         70.77571        56.44657        -1.65550
C         71.97944        58.64338        -1.45932
C         70.79085        59.33402        -1.04654
C         71.96685        61.65584        -0.89949
C         70.86472        60.74046        -0.55346
C         71.91280        63.01346        -0.68952
C         70.81512        63.71025        -0.10074
C         72.01609        65.88716         0.02887
C         70.82912        65.10234         0.20723
C         72.08133        67.21142         0.38910
C         70.93427        67.91105         0.86910
C         72.18469        70.02490         1.26231
C         70.96974        69.28342         1.28639
C         72.25710        71.31278         1.74918
C         71.10736        71.93405         2.29717
O         65.22747        54.53236        -1.86704
O         54.51575        50.71783         0.71737
O         57.24923        49.25264        -2.53730
O         60.98199        59.99158         2.30913
O         49.65881        53.39036        -2.01741
O         48.63018        47.66507         2.40844
O         61.00986        43.42256         1.21725
O         67.76116        67.92404        -0.20703
O         63.97377        41.33240        -1.40627
O         69.97757        53.57135         0.61258
O         56.85528        44.00806         1.34781
O         44.38043        50.14882        -1.41167
O         63.82289        39.15734         2.47647
O         58.88195        58.55879         2.01441
O         52.35276        46.16900         2.09662
O         63.34156        58.74975         2.04651
O         54.47613        61.10833        -1.58898
O         70.46161        60.67175         0.87670
O         67.17859        62.49780        -1.25858
O         52.74819        52.22738        -2.29051
O         62.25523        37.22901         3.25195
H         62.62721        38.06745         3.61136
O         69.91946        62.83021         1.87873
H         70.47587        62.02246         2.01293
O         55.03681        53.14331        -2.78477
H         54.12828        53.04434        -3.16403
O         51.18923        55.36950        -2.62580
H         50.88219        54.52620        -3.03679
O         46.09278        52.45646         1.81946
H         46.80949        51.90578         2.20503
O         42.54028        52.86409        -2.26131
H         42.80387        51.95931        -2.53383
O         59.89484        43.72015        -2.26842
H         59.20690        44.23728        -2.75080
O         65.82286        35.76694         3.28488
H         66.33529        35.21601         3.91320
O         52.28420        56.91695         1.46912
H         53.04600        57.41440         1.86158
O         65.06128        60.76534        -1.83166
H         65.61305        60.39966        -2.55318
O         65.28953        68.54765         0.04768
H         66.06877        68.76696        -0.51670
O         47.42931        57.73277        -2.28356
H         47.52744        56.92766        -2.83494
O         67.20701        48.58228        -3.00934
H         66.37031        49.06039        -3.23789
O         57.55673        46.49614         1.00129
H         57.21859        45.88165         1.69516
O         58.31807        45.99065        -2.55970
H         58.96447        46.50634        -3.09016
O         68.00435        37.52413        -0.92649
H         68.65780        37.84071        -1.58452
O         67.09307        42.19006         1.65546
H         67.77456        41.83098         2.26306
O         70.39800        56.27025        -3.07508
H         70.26859        57.16470        -3.45588
O         66.52574        41.63199        -1.89570
H         65.68827        41.57263        -2.41021
O         70.99121        43.36303        -2.76625
H         70.91678        44.27080        -3.13058
O         62.37499        56.33722         2.22719
H         62.96343        56.93859         2.73935
O         42.20452        54.32992         1.07500
H         42.17364        55.25708         1.38945
O         61.11021        63.01668         2.96546
H         60.20679        63.15844         3.32006
O         67.80612        37.81674         2.71565
H         67.09697        37.50192         3.32205
O         47.54544        54.74293         1.40239
H         46.88070        54.16326         1.85493
O         60.17410        61.41598        -0.99273
H         59.46630        61.95794        -1.40338
O         64.85331        52.70902         1.28719
H         64.81357        51.77629         1.58532
O         62.33465        45.42905        -2.68595
H         63.13896        44.91721        -2.91754
O         51.56981        48.66933         2.37529
H         52.21918        48.04932         2.78160
O         70.13579        40.41364         1.87455
H         71.06100        40.73261         1.93643
O         64.78609        50.10517        -2.81795
H         64.73344        51.05949        -3.04259
O         65.40081        35.58591        -0.31862
H         64.83142        36.07807        -0.94521
O         68.46353        64.90905         2.57099
H         69.06025        64.13884         2.74533
O         50.08711        45.63030         2.99706
H         49.86759        46.49205         3.42001
O         65.08595        66.88340         3.25960
H         64.43940        66.25653         3.64654
O         55.98087        42.03458        -1.58998
H         55.95015        41.08241        -1.82203
O         65.58630        61.13198         1.74264
H         64.93518        61.19668         2.47325
O         54.66330        58.43241         1.71518
H         55.49740        58.05859         2.07701
O         52.02203        44.55795        -1.21723
H         52.13893        43.68010        -1.63826
O         55.79325        45.87798        -2.19941
H         56.51157        46.23547        -2.77195
H         37.46421        49.16883         0.84271
H         35.35052        50.41540         0.65297
H         37.47771        53.93336        -0.63208
H         35.35579        52.80746        -0.08355
H         39.11201        48.20472         0.90790
H         39.09297        54.66301        -1.43350
H         41.21145        47.00790         1.05080
H         41.12974        55.99752        -1.33910
H         44.92591        44.87151         1.46366
H         42.83600        46.04137         1.13083
H         44.91143        58.23448        -1.17240
H         42.76731        57.02092        -1.01229
H         46.55887        43.90028         1.07015
H         46.52364        59.05781         0.24305
H         48.62564        42.67940         0.93817
H         48.64692        60.21345         0.59633
H         52.31436        40.47587         0.76685
H         50.26012        41.69563         1.01833
H         52.35555        62.54470        -0.42155
H         50.24270        61.34606        -0.16666
H         53.98579        39.53209         0.97833
H         54.12989        63.50072        -0.19265
H         56.08909        38.34801         1.03457
H         56.17859        64.59820         0.54051
H         59.86489        36.37002         1.84423
H         57.74097        37.47012         1.39388
H         59.68967        66.57573         1.95540
H         57.64292        65.33884         1.58020
H         61.49074        35.32482         1.29138
H         61.27617        67.61332         1.68603
H         63.52863        34.14819         0.86106
H         63.32388        68.87133         1.98916
H         67.21562        31.97767         1.81200
H         65.19790        33.24516         2.25195
H         67.37321        70.75207         2.88533
H         65.22248        69.72286         2.62966
H         68.80060        30.98945         1.63166
H         69.02428        71.76602         2.73931
H         73.07586        30.90177         1.15001
H         70.90045        29.71893         1.52970
H         73.12498        33.34270         0.85582
H         73.15850        35.21155         0.60355
H         73.17339        37.60633         0.15944
H         72.94305        39.26223        -0.97203
H         72.99033        41.67308        -1.46235
H         73.17689        43.70862        -0.78900
H         73.16939        46.13958        -0.73712
H         73.19721        48.01109        -1.23142
H         73.19354        50.44488        -1.26603
H         73.12945        52.40016        -1.50720
H         73.02773        54.81285        -1.71269
H         72.96504        56.82916        -1.96088
H         72.91303        59.21743        -1.55528
H         72.84260        61.24378        -1.42083
H         72.77724        63.60098        -1.03317
H         72.92581        65.40779        -0.35753
H         73.03868        67.73754         0.27451
H         73.09444        69.56459         0.85424
H         73.20955        71.85977         1.72030
H         71.17717        72.95809         2.68923
