         732
 CSIRO Nanostructure Databank - Neutral Graphene Oxide Data Set
C         23.02089        24.52217         0.28929
C         21.82383        25.24224         0.27890
C         23.02439        27.32732         0.70790
C         21.81894        26.61683         0.49096
C         23.02711        28.76485         0.92357
C         21.78499        29.50460         1.02462
C         23.01344        31.58056         1.66235
C         21.76294        30.82533         1.30711
C         22.91797        33.05254         1.29084
C         21.79360        33.85765         1.75054
C         23.01703        35.95809         1.39062
C         21.81760        35.22682         1.65732
C         23.01932        37.41626         1.24383
C         21.82401        38.11130         0.93116
C         23.05119        40.20023         0.65793
C         21.83689        39.46952         0.68193
C         23.08283        41.60778         0.31704
C         21.89237        42.36256         0.15672
C         23.16000        44.34480        -0.48226
C         21.93129        43.69428        -0.20716
C         23.19006        45.73331        -0.94402
C         22.09207        46.57473        -0.87759
C         23.20006        48.33566        -2.14638
C         22.14108        47.90487        -1.40696
C         25.64389        23.14564         0.13508
C         25.50298        24.45638         0.56473
C         24.24263        25.17601         0.53068
C         25.50525        27.28857         0.86223
C         24.24579        26.59102         0.73454
C         25.49142        28.75141         0.69643
C         24.23475        29.48774         0.94345
C         25.49605        31.61746         1.14231
C         24.27665        30.89923         1.15267
C         25.50653        33.06676         1.25125
C         24.24601        33.81044         1.11410
C         25.48009        35.93190         1.49651
C         24.24016        35.26014         1.32797
C         25.42820        37.39712         1.88332
C         24.23300        38.12869         1.28989
C         25.51543        40.23066         0.80089
C         24.26783        39.51464         0.94889
C         25.55471        41.54269         0.34505
C         24.33009        42.25905         0.10287
C         25.63471        44.29088        -0.57000
C         24.36021        43.61614        -0.34749
C         25.62211        45.57600        -1.27743
C         24.42007        46.22578        -1.52412
C         25.60480        47.90577        -3.10425
C         24.34136        47.43518        -2.38404
C         25.76539        49.28940        -3.57142
C         28.05719        23.08769         0.63244
C         26.87662        22.45995         0.19541
C         27.99136        24.45354         1.03184
C         26.66138        25.12508         1.25600
C         27.94774        27.32187         1.28874
C         26.70462        26.62123         1.05861
C         27.99716        28.72825         1.27914
C         26.80325        29.48901         0.89987
C         27.96861        31.59870         1.40589
C         26.76151        30.93307         1.16437
C         28.00836        33.07882         1.15618
C         26.68894        33.77904         1.38504
C         27.95656        35.90863         1.62144
C         26.68207        35.21285         1.50160
C         27.98848        37.29633         1.56943
C         26.74779        38.10672         1.64526
C         28.06359        39.99385         0.50514
C         26.77442        39.51461         1.14848
C         28.07506        41.50883         0.55391
C         26.87014        42.18837        -0.08451
C         28.00540        44.67895        -0.19418
C         26.82393        43.71103        -0.18036
C         28.06504        45.50295        -1.45128
C         26.85930        46.04901        -1.87167
C         28.22524        47.84332        -3.06106
C         26.86935        47.13121        -2.86135
C         28.23309        49.27912        -3.38227
C         26.97759        49.90635        -3.69114
C         30.74907        20.42142         0.26053
C         29.52271        21.08106         0.14703
C         30.45731        22.98950         1.28139
C         29.34220        22.37946         0.65861
C         30.34437        24.37895         1.75164
C         29.14230        25.15947         1.43494
C         30.38151        27.29797         1.77634
C         29.14638        26.57652         1.58146
C         30.39211        28.74572         1.82272
C         29.18702        29.45168         1.62066
C         30.39365        31.59751         1.97676
C         29.18382        30.89104         1.65054
C         30.38788        33.04277         2.00747
C         29.20550        33.76679         1.74210
C         30.40723        35.87892         2.03193
C         29.18861        35.17266         1.78621
C         30.43077        37.30303         1.84972
C         29.24223        37.98849         1.52638
C         30.49626        40.03508         1.09353
C         29.27931        39.36926         1.15086
C         30.52280        41.46147         0.85248
C         29.22688        42.10390         0.97323
C         30.51649        44.21766        -0.48540
C         29.33600        44.11918         0.17232
C         30.58874        45.14914        -1.67547
C         29.34091        45.98758        -1.86684
C         30.67701        47.96274        -2.51409
C         29.43465        47.23853        -2.47883
C         30.68822        49.32077        -2.95415
C         29.45949        49.97661        -3.34698
C         30.71014        52.05516        -3.69162
C         29.53032        51.36538        -3.70156
C         33.12375        18.85084         0.23249
C         33.17063        20.13191         1.03091
C         31.85701        20.97615         0.91923
C         32.79835        23.07381         1.97105
C         31.68670        22.29516         1.45351
C         32.92032        24.44702         1.83499
C         31.65499        25.18171         1.96045
C         32.87772        27.35890         1.54129
C         31.60320        26.61900         1.81145
C         32.82838        28.73707         2.15014
C         31.61859        29.44791         2.12452
C         32.79762        31.62131         2.58311
C         31.59409        30.89260         2.27383
C         32.80068        33.02260         2.58140
C         31.59717        33.75761         2.30670
C         32.82698        35.96654         2.70105
C         31.60032        35.17285         2.29467
C         32.89477        37.32403         2.06596
C         31.69350        37.98517         1.78271
C         32.93191        39.94136         0.95870
C         31.72579        39.33127         1.31216
C         32.84355        41.19913         0.12321
C         31.67051        42.10976         0.40980
C         32.95113        43.98969        -0.60710
C         31.73757        43.44485        -0.16960
C         32.97133        45.36817        -1.04817
C         31.84349        45.98816        -1.54803
C         33.09505        48.07569        -2.02084
C         31.86638        47.35195        -2.01291
C         33.12581        49.41740        -2.50977
C         31.91541        50.05253        -2.93764
C         33.16567        52.16343        -3.28074
C         31.94306        51.43432        -3.31036
C         33.21344        53.56505        -3.56672
C         35.23695        19.26574        -0.99005
C         34.07543        18.46509        -0.65372
C         35.34450        20.53899        -0.36306
C         34.39427        20.94285         0.61913
C         35.52039        23.14285         0.83463
C         34.63609        22.13326         1.28087
C         35.41687        24.53415         1.28585
C         34.18331        25.16652         1.72016
C         35.34821        27.33378         1.87218
C         34.14461        26.57742         1.81942
C         35.35534        28.71851         2.22583
C         34.07117        29.35024         2.59400
C         35.35567        31.56581         2.70348
C         34.06515        30.88870         2.85080
C         35.36731        33.01914         2.86897
C         34.04608        33.77654         2.87497
C         35.33124        35.88690         2.45273
C         34.11913        35.21668         2.56860
C         35.37900        37.29627         2.05716
C         34.13809        37.96013         1.82126
C         35.38758        39.82399         0.77277
C         34.15013        39.25089         1.19365
C         35.23690        41.00259        -0.05046
C         34.17591        41.86943        -0.03404
C         35.49865        44.06458        -0.39363
C         34.25497        43.21031        -0.74766
C         35.45498        45.43774        -0.54225
C         34.17125        46.20812        -0.70229
C         35.51172        48.14731        -1.57897
C         34.29406        47.47245        -1.52032
C         35.56529        49.49404        -2.10008
C         34.35822        50.13612        -2.51932
C         35.62225        52.21987        -2.94786
C         34.39008        51.50754        -2.92778
C         35.64503        53.63005        -3.26992
C         34.38580        54.26799        -3.53346
C         37.45547        16.99494        -3.02644
C         36.32754        17.50364        -2.37572
C         37.42165        19.67873        -2.09219
C         36.29469        18.82329        -1.84305
C         37.53027        20.93038        -1.48119
C         36.47183        21.38432        -0.61035
C         37.61997        23.57954        -0.43818
C         36.50350        22.69594        -0.07396
C         37.67882        24.90317         0.26072
C         36.54010        25.35071         1.07941
C         37.79290        27.43261         1.52019
C         36.57458        26.69721         1.52691
C         37.79867        28.78397         1.93378
C         36.56176        29.44034         2.26577
C         37.81482        31.58050         2.53093
C         36.56986        30.87046         2.52870
C         37.84219        33.02456         2.57964
C         36.59747        33.77952         2.61099
C         37.86511        35.93819         2.70029
C         36.57821        35.15645         2.53611
C         37.85197        37.33194         2.10805
C         36.61351        37.97391         1.80309
C         37.90871        40.01889         1.15291
C         36.64227        39.28617         1.18322
C         38.00891        41.42376         0.83243
C         37.03319        42.12854         0.03404
C         37.74625        44.33412         0.80535
C         36.74202        43.47007         0.08274
C         37.83702        45.68265         0.12325
C         36.66770        46.24231        -0.43368
C         37.93704        48.25505        -1.03040
C         36.71824        47.54665        -1.00883
C         38.08096        49.48422        -1.89457
C         36.78342        50.20978        -2.13349
C         38.07558        52.28177        -2.54561
C         36.82850        51.55418        -2.56651
C         38.16307        53.57089        -3.32183
C         36.85651        54.33963        -3.32736
C         38.05940        56.46100        -3.65324
C         36.89963        55.75475        -3.54242
C         39.80190        15.88200        -4.38441
C         39.75996        17.22853        -3.95123
C         38.57442        17.77857        -3.32129
C         39.77480        19.97647        -2.97329
C         38.44708        19.27442        -3.12590
C         39.88568        21.19154        -2.31999
C         38.74410        21.72215        -1.60866
C         40.08475        23.67020        -0.89086
C         38.85366        22.96091        -0.97111
C         40.22256        24.78134         0.12826
C         38.97150        25.55510         0.44249
C         40.26419        27.47831         1.23887
C         39.02084        26.79246         1.08867
C         40.27821        28.81921         1.74278
C         39.04196        29.49072         2.00817
C         40.30060        31.55522         2.42786
C         39.05471        30.87744         2.33556
C         40.29521        32.98818         2.74158
C         39.03978        33.71744         2.55362
C         40.35464        35.91036         2.38629
C         39.05689        35.16926         2.14558
C         40.33837        37.32021         2.25057
C         39.07605        38.00465         1.99407
C         40.33356        40.12974         1.77925
C         39.09759        39.39696         1.64078
C         40.33873        41.54104         1.58446
C         39.12473        42.19490         1.20361
C         40.24244        44.34945         1.02829
C         39.08281        43.62606         0.97413
C         40.29399        45.69210         0.42023
C         39.04023        46.39762         0.10412
C         40.33473        48.47079        -0.39054
C         39.10417        47.69763        -0.45742
C         40.28982        49.85641        -0.78393
C         39.20281        50.39076        -1.45547
C         40.38965        52.57821        -1.71095
C         39.20374        51.75735        -1.91028
C         40.38769        53.95791        -2.18477
C         39.34977        54.43069        -2.93048
C         40.64564        56.60659        -3.44631
C         39.36969        55.80662        -3.50098
C         40.57681        58.08300        -3.54506
C         42.08212        16.15461        -5.15049
C         40.94003        15.36947        -4.99753
C         42.10157        17.49756        -4.71623
C         40.91873        18.03546        -4.15278
C         42.18210        20.26463        -3.81037
C         40.87669        19.46783        -3.79832
C         42.24372        21.49336        -3.00485
C         41.13366        21.95920        -2.33190
C         42.46758        23.91085        -1.49083
C         41.21873        23.19340        -1.56209
C         42.50021        25.17569        -0.78966
C         41.40626        25.67491        -0.10004
C         42.65838        27.60382         0.78664
C         41.45831        26.92126         0.64019
C         42.77789        28.70339         1.80457
C         41.50991        29.51027         1.89872
C         42.79756        31.62473         2.24771
C         41.53690        30.88575         2.22654
C         42.82677        33.01652         2.41411
C         41.59277        33.75513         2.73249
C         42.80034        35.92459         2.48337
C         41.56836        35.22034         2.50278
C         42.78048        37.33683         2.48310
C         41.56149        38.04588         2.33477
C         42.75090        40.25095         2.29232
C         41.55671        39.49070         2.16525
C         42.74502        41.65059         2.05305
C         41.53762        42.28975         1.73279
C         42.78888        44.54908         1.51939
C         41.48105        43.75849         1.57550
C         42.81686        45.87356         0.89334
C         41.58418        46.44579         0.33652
C         42.76482        48.60404         0.12507
C         41.53320        47.89214         0.06079
C         42.73490        50.06648        -0.01564
C         41.43786        50.72161        -0.46379
C         42.73570        52.82376        -0.93561
C         41.50329        52.06067        -1.06974
C         42.73808        54.16497        -1.25583
C         41.48735        54.89611        -1.70420
C         42.81016        56.97754        -2.16095
C         41.87808        55.95814        -2.79619
C         42.61336        58.31455        -2.23547
C         41.49313        58.88054        -2.95893
C         44.56643        17.67286        -5.15357
C         43.36138        18.26328        -4.70390
C         44.69473        20.18438        -3.85576
C         43.42851        19.54741        -4.12439
C         44.74694        21.48043        -3.29978
C         43.49844        22.31532        -3.15739
C         44.87946        24.09950        -2.02185
C         43.62628        23.44240        -2.15300
C         44.96787        25.36424        -1.34570
C         43.71456        25.99310        -0.91060
C         45.13980        27.74968         0.30972
C         43.80653        27.25022        -0.03472
C         45.20583        28.93227         1.14607
C         44.01919        29.53404         1.62692
C         45.26972        31.59491         1.97044
C         44.03381        30.89970         1.98686
C         45.24217        33.06262         1.89166
C         44.02590        33.79141         2.26387
C         45.31468        35.91891         2.40651
C         44.05348        35.19158         2.39387
C         45.33200        37.36250         2.60024
C         44.03957        38.06134         2.75466
C         45.32082        40.27414         2.52434
C         44.01805        39.58892         2.70657
C         45.29196        41.76023         2.50821
C         43.98693        42.46288         2.24339
C         45.26663        44.50591         1.41639
C         44.05918        43.83933         1.68444
C         45.26639        45.88169         0.97229
C         44.01680        46.55129         0.72418
C         45.23197        48.66787         0.23351
C         43.99279        47.94791         0.33057
C         45.22557        50.06510        -0.07142
C         44.00140        50.78374        -0.23371
C         45.21991        52.86923        -0.60980
C         43.97717        52.14741        -0.55708
C         45.23221        54.26856        -0.82544
C         43.95098        54.96830        -1.01595
C         45.31109        57.03219        -1.62778
C         43.98692        56.42076        -1.43662
C         45.80028        18.27995        -4.92424
C         47.21011        19.98680        -3.74073
C         45.90118        19.48124        -4.21816
C         47.26680        21.39864        -3.20099
C         46.03419        22.26204        -3.37109
C         47.32948        24.10933        -2.32018
C         46.09808        23.50024        -2.50682
C         47.39332        25.57725        -1.95423
C         46.17561        26.05173        -1.18372
C         47.53557        27.93636        -0.21994
C         46.24120        27.23853        -0.38102
C         47.64258        28.87367         0.92117
C         46.46035        29.55147         1.40906
C         47.75028        31.64508         2.06653
C         46.50230        30.89844         1.88225
C         47.80051        33.05437         2.00546
C         46.55057        33.82628         1.84699
C         47.80987        35.86604         2.50740
C         46.51804        35.22681         2.26593
C         47.81772        37.39031         2.63070
C         46.51486        38.10293         2.58823
C         47.82182        40.27238         2.54948
C         46.50357        39.55764         2.54937
C         47.85975        41.76127         2.30622
C         46.56640        42.52972         2.27881
C         47.74536        44.49398         1.29811
C         46.54167        43.85459         1.61600
C         47.73377        45.88315         0.87494
C         46.48168        46.57233         0.74275
C         47.70006        48.66623         0.19532
C         46.46764        47.97080         0.39223
C         47.69756        50.06359        -0.08994
C         46.46243        50.76526        -0.20594
C         47.68718        52.88232        -0.52393
C         46.45218        52.16953        -0.44113
C         47.67819        54.30249        -0.66022
C         46.45161        54.99024        -0.86019
C         46.44531        56.38090        -1.27474
C         49.67279        20.01511        -3.99653
C         48.49058        19.40386        -4.20289
C         49.79278        21.33270        -3.33597
C         48.55883        22.09910        -3.10664
C         49.81865        24.11992        -2.50546
C         48.57561        23.43279        -2.66144
C         49.90233        25.35891        -1.79344
C         48.72327        25.98692        -1.37079
C         50.09766        27.64386        -0.06756
C         48.80967        27.26828        -0.67545
C         50.14624        28.75704         0.86435
C         48.88010        29.09569         1.46372
C         50.24562        31.58910         2.09850
C         48.98813        31.01059         2.32874
C         50.26451        32.99043         1.98195
C         49.04266        33.72159         2.05877
C         50.22362        35.88059         1.93019
C         49.05825        35.17298         2.10998
C         50.21072        37.32944         1.89894
C         49.05929        38.04356         2.18539
C         50.25913        40.20718         1.69797
C         49.08761        39.51251         2.26436
C         50.22826        41.60830         1.47834
C         49.03999        42.37549         1.66859
C         50.21216        44.39789         0.93855
C         49.00701        43.74783         1.30890
C         50.21843        45.86573         0.83149
C         48.93890        46.57945         0.63146
C         50.16351        48.65800        -0.03431
C         48.94503        47.95706         0.27240
C         50.17437        50.03598        -0.28126
C         48.92954        50.77457        -0.28020
C         50.18175        52.89356        -0.88816
C         48.91749        52.16443        -0.49040
C         50.11963        54.35683        -0.54634
C         48.93821        55.00770        -0.52733
C         52.30243        21.70781        -4.19503
C         51.10340        22.14560        -3.46052
C         52.37431        24.33341        -2.97419
C         51.01032        23.60188        -3.17151
C         52.41137        25.37333        -1.93512
C         51.19754        25.89318        -1.41219
C         52.50633        27.30956         0.21595
C         51.23726        26.93907        -0.42776
C         52.54799        28.68928         0.87177
C         51.32045        29.45114         1.14588
C         52.79144        31.49352         1.69355
C         51.50160        30.69687         2.07775
C         52.64175        32.96994         1.43791
C         51.51637        33.68176         1.72981
C         52.56740        35.85551         0.96795
C         51.56925        35.18608         1.92319
C         52.61408        37.33948         1.23710
C         51.44715        38.03003         1.55349
C         52.60965        40.12120         0.96526
C         51.43676        39.46827         1.45541
C         52.47174        41.45723         0.50067
C         51.38730        42.24692         0.93813
C         52.70659        44.34666         0.78126
C         51.45332        43.68955         0.86034
C         52.73299        45.69648         0.10105
C         51.50009        46.52878         0.45589
C         52.73694        48.57168        -0.38705
C         51.42662        47.88519        -0.16329
C         52.70861        50.05809        -0.52949
C         51.42087        50.76947        -0.43757
C         52.64688        52.87158        -0.15745
C         51.43778        52.16200        -0.46904
C         53.46689        22.41990        -4.11481
C         54.84489        24.15178        -2.91040
C         53.60277        23.61325        -3.32229
C         54.88001        25.27352        -2.00244
C         53.67723        25.78734        -1.45909
C         55.02982        27.45010        -0.12899
C         53.79117        26.58450        -0.18541
C         55.06042        28.53879         0.91797
C         53.82562        29.40498         0.83873
C         54.97099        31.47778         1.55210
C         53.83460        30.76612         0.85459
C         55.14291        32.95418         1.30391
C         53.87756        33.66300         0.88298
C         55.04601        35.84536         1.37636
C         53.89994        35.15736         1.12123
C         55.08627        37.30149         1.28067
C         53.86712        38.03672         1.16816
C         55.13008        40.16644         1.16793
C         53.88053        39.45341         1.07839
C         55.20841        41.59425         1.31609
C         54.13528        42.42936         1.95001
C         55.23932        44.46389         0.91838
C         53.96972        43.91340         1.53116
C         55.23881        45.83019         0.53785
C         53.99937        46.52025         0.28702
C         55.22606        48.64729         0.11406
C         53.99924        47.88177         0.01424
C         55.22734        50.07137         0.06347
C         53.99186        50.83081        -0.27128
C         53.83079        52.23912         0.08708
C         57.28968        24.13247        -2.91881
C         56.09506        23.59480        -3.32652
C         57.35000        25.26858        -2.05087
C         56.14670        25.82554        -1.59304
C         57.46093        27.59846        -0.36906
C         56.18154        26.99273        -0.71791
C         57.44842        28.84374         0.40543
C         56.30387        29.37667         0.91768
C         57.54027        31.45954         1.63976
C         56.25848        30.64282         1.77865
C         57.51331        32.89816         1.97020
C         56.26133        33.63334         1.65248
C         57.56757        35.83147         1.45339
C         56.28446        35.13991         1.87949
C         57.56137        37.22861         1.22721
C         56.31926        37.98010         1.20783
C         57.59391        40.10108         0.98605
C         56.34551        39.41419         1.10625
C         57.62597        41.52000         0.89479
C         56.41923        42.26874         1.07437
C         57.67299        44.38528         0.66095
C         56.43696        43.72122         0.93320
C         57.68375        45.77637         0.41502
C         56.47520        46.51646         0.35920
C         57.68258        48.69933         0.30013
C         56.46817        47.95678         0.23673
C         57.64124        50.09304         0.33515
C         56.42501        50.77027         0.21386
C         59.83197        25.32969        -2.09931
C         58.63097        25.82906        -1.62202
C         59.95649        27.38302        -0.07455
C         58.64334        26.97592        -0.72919
C         60.01160        28.87196         0.23951
C         58.71879        29.58374         0.52233
C         60.00428        31.54121         1.36256
C         58.72386        30.86706         1.25685
C         60.05217        32.92222         1.55827
C         58.81637        33.67899         1.83782
C         60.01461        35.77850         1.23533
C         58.78785        35.12287         1.49712
C         60.01963        37.19023         0.99492
C         58.79676        37.92073         1.03148
C         60.05063        40.02299         0.72674
C         58.81771        39.34856         0.90475
C         60.08820        41.46476         0.66864
C         58.87668        42.20926         0.73204
C         60.16304        44.30211         0.57769
C         58.91377        43.63411         0.65124
C         60.22079        45.75298         0.49806
C         58.96931        46.45900         0.18349
C         60.23169        48.63042         0.63188
C         58.98554        47.99630         0.20083
C         61.08919        25.92411        -1.74933
C         61.16960        26.92405        -0.84017
C         61.21754        29.45218         0.86130
C         61.21140        30.73611         1.29279
C         61.26106        33.66878         1.39327
C         61.24290        35.02949         1.26354
C         61.23117        37.89274         0.73856
C         61.24497        39.25842         0.60927
C         61.31729        42.16150         0.58069
C         61.35377        43.54032         0.55493
C         61.38519        46.47569         0.65752
C         61.37772        47.90083         0.75791
O         53.55527        42.04870         2.95897
O         48.71326        39.92520         3.65222
O         34.01673        29.91826         3.93981
O         29.25794        43.44005         1.39890
O         47.15964        20.26944        -2.28490
O         43.68859        56.07473        -0.03100
O         34.69717        33.42052         4.13993
O         52.48270        27.43974         1.66172
O         48.95167        29.67181         2.74799
O         23.42045        33.36574        -0.02769
O         41.94354        44.50718         2.75747
O         40.26395        55.93308        -4.69342
O         41.83381        50.71343         0.95409
O         59.06008        47.23835        -1.05341
O         45.82234        33.54381         0.60686
O         53.95977        31.51884         2.74273
O         24.57920        47.14617        -3.82166
O         37.25554        24.79258        -1.18594
O         26.91738        39.25012         2.58147
O         47.41108        42.52556         3.47746
O         44.51810        42.33495         3.61362
O         52.01669        47.92303        -1.51488
O         41.12997        45.61258        -0.82506
O         33.90890        22.37563         2.45627
O         26.28092        29.19456        -0.45829
O         36.32734        41.33375        -0.87160
O         51.11567        46.52231         1.85022
O         43.93540        38.86823         3.97597
O         51.52524        24.53710        -4.15728
O         40.98859        33.35352         4.01585
O         30.85378        24.65716         3.08567
O         41.22922        20.33908        -4.93502
O         59.41479        29.71473        -0.78500
O         27.63606        46.94842        -4.08025
O         47.95267        36.53038         3.80764
O         48.15202        28.39409        -1.47703
O         53.53672        50.53032        -1.64140
O         58.22187        33.35897         3.16833
O         50.78951        21.36714        -2.25541
O         43.50959        27.32256        -1.48011
O         28.04024        39.48734        -0.87106
H         28.92972        39.63042        -1.26067
O         32.93440        27.55805         0.06667
H         32.13785        28.07319        -0.18654
O         56.21429        30.17855         3.16391
H         55.53344        30.70891         3.63856
O         55.02186        27.86460         2.21792
H         55.35582        28.52037         2.88174
O         53.77311        33.48684        -0.56955
H         53.00955        34.04552        -0.85762
O         40.95526        55.61207        -0.56150
H         41.72973        55.93939        -0.04004
O         46.10672        22.78361        -4.76369
H         46.60875        23.62840        -4.74374
O         23.11174        31.57289         3.12716
H         23.08389        30.63891         3.42433
O         33.86677        46.69599         0.66777
H         34.51179        47.40661         0.87335
O         38.37446        53.16795        -4.72309
H         39.18208        52.61243        -4.75249
O         56.23883        35.28816         3.33289
H         56.98143        34.74351         3.69329
O         37.91803        19.77509        -4.41760
H         38.67109        19.82592        -5.04626
O         27.70611        45.65519         0.87177
H         27.90071        45.20444         1.72312
O         34.36441        42.92029        -2.18052
H         35.17550        42.37120        -2.28773
O         42.62519        55.26492        -3.81707
H         42.02435        55.18672        -4.59679
O         38.87536        35.15439         0.69135
H         39.64577        34.70373         0.28657
O         60.00120        26.71959         1.23012
H         59.97141        25.75219         1.07392
O         37.27626        44.58118         2.16877
H         36.38470        44.98480         2.10270
O         53.35791        41.93475        -0.41823
H         53.08777        42.83562        -0.71008
O         47.33320        26.29641        -3.24840
H         47.47798        27.25008        -3.03103
O         32.56066        40.70276        -1.25135
H         32.75869        41.44752        -1.86732
O         40.50375        24.05709         1.40240
H         40.79667        24.72610         2.05907
O         32.68197        36.20332         4.15235
H         32.82873        35.34571         4.60752
O         52.65068        45.36437        -1.32321
H         52.55365        46.22498        -1.80915
O         38.07112        36.07412         4.12985
H         37.26028        36.45505         4.52661
O         30.70226        44.32997        -2.87906
H         30.63022        44.92279        -3.65638
O         51.69927        30.17497         3.39913
H         50.90355        29.64631         3.63060
O         26.39510        24.94007         2.70783
H         26.42344        23.97559         2.88631
O         25.20604        37.39120         3.32718
H         25.56732        38.24480         3.66157
O         43.34500        22.98664        -4.46447
H         44.25165        23.10646        -4.84307
O         42.93812        28.03376         3.11769
H         42.93358        28.73393         3.80515
O         26.99013        41.84351        -1.51260
H         27.11926        40.86262        -1.57100
O         52.06174        35.65912        -0.39073
H         52.52118        36.29681        -0.97705
O         33.29018        19.73695         2.41857
H         33.46838        20.55533         2.93786
O         38.49955        48.97595        -3.21979
H         37.79149        48.37611        -3.53830
O         54.01676        25.57128         0.84647
H         54.08243        26.07141         1.69632
O         53.82863        44.61830         2.80294
H         53.35872        43.99566         3.40898
O         52.11960        35.39966         3.24976
H         51.47252        35.08245         3.91379
O         28.22198        33.19054        -0.30717
H         27.48802        32.70878        -0.74726
O         50.21517        52.84759        -2.36592
H         50.40894        51.92204        -2.62843
H         22.99596        23.43591         0.12848
H         20.87514        24.71656         0.10284
H         20.85770        27.14559         0.46590
H         20.83367        28.98745         0.84085
H         20.80170        31.35635         1.36652
H         20.93097        33.35557         2.21213
H         20.91583        35.78811         1.94233
H         20.87213        37.56506         0.88027
H         20.88783        39.97127         0.45134
H         20.91501        41.89470         0.33409
H         20.98616        44.24388        -0.31425
H         21.15952        46.24135        -0.40279
H         23.18058        49.32091        -2.63208
H         21.27264        48.56202        -1.25672
H         24.78281        22.61300        -0.29364
H         24.85888        49.83158        -3.87571
H         26.90538        21.41670        -0.14625
H         26.98174        50.94743        -4.04256
H         30.83770        19.42476        -0.19405
H         28.69847        20.56814        -0.36714
H         30.69934        53.11134        -3.99019
H         28.61805        51.89368        -4.00727
H         32.32456        18.13656         0.48211
H         32.28921        54.10514        -3.80986
H         33.96642        17.47951        -1.13029
H         34.35535        55.34086        -3.76305
H         37.45056        15.92554        -3.28087
H         35.48536        16.82289        -2.19287
H         38.01748        57.53708        -3.86853
H         35.95488        56.30847        -3.63446
H         38.92532        15.23205        -4.26794
H         39.76239        58.51921        -4.13939
H         42.96917        15.70116        -5.61034
H         40.94689        14.32822        -5.34826
H         43.32574        59.00285        -1.75741
H         41.41892        59.97336        -3.04247
H         44.55763        16.70001        -5.66061
H         45.36612        58.03042        -2.08625
H         46.70798        17.75678        -5.25465
H         47.41088        56.88328        -1.42469
H         50.60265        19.51806        -4.30956
H         48.47538        18.43417        -4.72149
H         51.04906        54.93328        -0.44613
H         48.92277        56.09391        -0.35800
H         52.28787        20.74924        -4.73301
H         52.59171        53.95384         0.02071
H         54.35897        22.00807        -4.60852
H         54.67268        52.79823         0.51791
H         58.21787        23.66908        -3.27825
H         56.10424        22.72803        -4.00113
H         58.56979        50.67594         0.39351
H         56.43096        51.86763         0.17710
H         59.84962        24.49323        -2.80932
H         60.23450        49.69792         0.89258
H         61.99668        25.55669        -2.25015
H         62.14563        27.35822        -0.58003
H         62.12777        28.84200         0.94611
H         62.14093        31.16720         1.69191
H         62.21894        33.13572         1.32182
H         62.19837        35.55091         1.12718
H         62.17988        37.34915         0.64929
H         62.20411        39.75566         0.41855
H         62.26725        41.61397         0.54532
H         62.32649        44.04450         0.48736
H         62.33691        45.96037         0.84504
H         62.31299        48.40434         1.04092
