         334
 CSIRO Nanostructure Databank - Neutral Graphene Oxide Data Set
C         30.39501        57.20841        -0.42260
C         30.40337        58.61382        -0.46137
C         29.21117        59.36569        -0.69220
C         30.44396        61.45416        -0.50852
C         29.24299        60.75005        -0.71148
C         32.81759        52.90714        -0.01092
C         32.79327        54.32821        -0.01409
C         31.59858        55.05452        -0.19417
C         32.82349        57.18942        -0.04028
C         31.58667        56.47148        -0.22137
C         32.81779        58.60914        -0.00063
C         31.63407        59.32521        -0.23020
C         32.87857        61.48106        -0.10897
C         31.64901        60.77329        -0.26273
C         35.28789        48.61774         0.05003
C         35.24277        50.01826         0.00943
C         34.04741        50.75553         0.08745
C         35.25447        52.92085         0.24594
C         34.02594        52.19115         0.10141
C         35.28077        54.32175         0.24995
C         34.03639        55.05170         0.11399
C         35.32547        57.16866         0.02228
C         34.03653        56.44826         0.08817
C         35.32580        58.66152         0.10794
C         34.03966        59.34685         0.49225
C         35.32270        61.47965         0.26115
C         34.08576        60.82235         0.16287
C         37.85184        44.32715         0.55922
C         37.85444        45.82653         0.67320
C         36.54115        46.52076         0.38044
C         37.79406        48.59954        -0.01743
C         36.51411        47.86958         0.07615
C         37.79213        50.05464        -0.00498
C         36.50812        50.80720        -0.21670
C         37.78079        52.89856         0.33760
C         36.50040        52.12746         0.54572
C         37.77108        54.31847         0.48514
C         36.51909        55.03679         0.41402
C         37.74485        57.18010         0.61006
C         36.56961        56.45722         0.36373
C         37.77337        58.61763         0.56999
C         36.58159        59.35587         0.42775
C         37.79497        61.46183         0.57813
C         36.56253        60.78547         0.46039
C         40.17397        40.04142         0.17805
C         40.20685        41.45343         0.22426
C         39.03374        42.19359         0.34354
C         40.29247        44.33082         0.09061
C         39.01995        43.62792         0.34315
C         40.28103        45.73484        -0.04054
C         38.95041        46.42672        -0.20256
C         40.26041        48.62623         0.36209
C         38.97947        47.91464         0.01403
C         40.26667        50.02579        -0.24169
C         38.97008        50.75505         0.01544
C         40.23177        52.86812         0.35533
C         38.99363        52.19903         0.18269
C         40.20845        54.25990         0.79349
C         38.97052        55.01406         0.67027
C         40.27361        57.17958         0.82311
C         38.96964        56.45386         1.10662
C         40.25547        58.60309         0.73936
C         39.01872        59.32026         0.69106
C         40.26165        61.44659         0.66565
C         39.01649        60.75351         0.66138
C         42.72112        35.82999         0.50406
C         42.72150        37.20522         0.45448
C         41.49004        37.96374         0.26683
C         42.41379        40.09395        -0.78706
C         41.35292        39.30418        -0.11693
C         42.61568        41.42261        -0.47013
C         41.55945        42.14793         0.31891
C         42.71607        44.31597        -0.30689
C         41.50244        43.61914        -0.03879
C         42.73091        45.74406        -0.25349
C         41.49739        46.45261        -0.13077
C         42.72615        48.56721         0.01320
C         41.52157        47.87848         0.00247
C         42.76046        50.02762         0.41238
C         41.49271        50.79012         0.15185
C         42.75145        52.90073         0.41755
C         41.48323        52.16304         0.31677
C         42.76972        54.30265         0.60720
C         41.52663        55.02006         0.93617
C         42.74087        57.19423         0.71565
C         41.49293        56.49313         0.80550
C         42.71554        58.61434         0.73237
C         41.49713        59.31332         0.72408
C         42.71544        61.47053         0.54586
C         41.48293        60.76759         0.67230
C         45.17727        32.96634         0.27694
C         43.98122        33.62960         0.41758
C         45.24210        35.77738         0.48322
C         43.96634        35.06483         0.85920
C         45.24844        37.17751         0.34919
C         44.00452        37.90560         0.52239
C         45.17493        40.04586         0.15640
C         44.09822        39.27277         0.78434
C         45.12494        41.56210         0.09723
C         43.92278        42.11435        -0.81490
C         45.16315        44.32152        -0.50075
C         43.94706        43.62187        -0.55120
C         45.20118        45.73793        -0.31410
C         43.96802        46.45898        -0.25958
C         45.21176        48.59919        -0.00186
C         43.96687        47.87787        -0.12865
C         45.20723        49.99920         0.07310
C         43.93966        50.75590        -0.23068
C         45.18019        52.92665         0.18515
C         43.96419        52.21527         0.18027
C         45.19316        54.32702         0.35018
C         43.98609        55.03789         0.52736
C         45.21744        57.20316         0.44903
C         43.98780        56.48313         0.62630
C         45.22154        58.62479         0.46858
C         44.00466        59.35950         0.96772
C         45.15410        61.48700         0.31918
C         43.95185        60.81011         0.54714
C         46.41997        33.63617         0.37603
C         47.70918        35.76581         0.42053
C         46.47294        35.05770         0.43961
C         47.73298        37.16953         0.37669
C         46.49272        37.85995         0.29031
C         47.75137        40.05474         0.03088
C         46.49149        39.29194        -0.00301
C         47.72912        41.41327        -0.13737
C         46.45384        42.11996        -0.41138
C         47.73736        44.32325        -0.38029
C         46.46613        43.60303        -0.61482
C         47.70234        45.73835        -0.24187
C         46.44946        46.44764        -0.19971
C         47.70250        48.54719         0.11802
C         46.45458        47.85689        -0.00897
C         47.73340        49.99289         0.44400
C         46.40551        50.74927         0.41634
C         47.62192        52.85609        -0.14915
C         46.44810        52.19979         0.11936
C         47.48471        54.31463        -0.57521
C         46.53283        55.02669         0.38829
C         47.59453        57.21621        -0.18796
C         46.44118        56.51357         0.14015
C         47.61110        58.64425        -0.09008
C         46.39966        59.33916         0.21721
C         47.60141        61.48035         0.09223
C         46.39741        60.79457         0.22769
C         48.96230        37.93941         0.38935
C         50.20263        40.09806         0.34726
C         48.99035        39.31741         0.25245
C         50.21858        41.45795         0.11718
C         49.00173        42.13349        -0.44161
C         50.17430        44.33326        -0.14378
C         48.94455        43.62241        -0.26492
C         50.17318        45.73335        -0.19375
C         48.93861        46.44536        -0.17135
C         50.17093        48.58748         0.26810
C         48.91113        47.86511        -0.00587
C         50.18502        50.05996         0.16417
C         48.95841        50.76582         0.20865
C         50.10714        52.89613        -0.16889
C         48.91313        52.18916        -0.03815
C         50.11995        54.28732        -0.70134
C         48.81774        55.03529        -0.79757
C         50.11332        57.22795        -0.41086
C         48.80587        56.57245        -0.85183
C         50.09145        58.64630        -0.21389
C         48.84250        59.35473        -0.15099
C         50.06082        61.48081         0.05589
C         48.84519        60.78574        -0.00874
C         51.41536        42.24039         0.25230
C         52.66004        44.36821         0.17295
C         51.42384        43.60891         0.07540
C         52.71119        45.70769        -0.03976
C         51.47014        46.46992        -0.43136
C         52.72554        48.64189         0.04024
C         51.47694        47.86222         0.16311
C         52.66971        50.05511         0.08595
C         51.40773        50.73706         0.09206
C         52.59295        52.90568        -0.31952
C         51.38268        52.22846         0.31032
C         52.56406        54.41443        -0.01213
C         51.43398        55.08401        -0.80925
C         52.56374        57.23755        -0.21363
C         51.32852        56.54507        -0.40274
C         52.55335        58.65712        -0.06156
C         51.31005        59.35768        -0.06701
C         52.51536        61.49309         0.19762
C         51.30391        60.79547         0.05966
C         54.02947        46.44386        -0.18552
C         55.15194        48.67686         0.05324
C         53.96630        47.95290        -0.01078
C         55.15168        50.10374         0.10792
C         53.90128        50.80191         0.08677
C         55.09212        52.94317        -0.05225
C         53.89645        52.21827         0.01826
C         55.06281        54.37838        -0.27142
C         53.87940        55.10160        -0.29909
C         55.02682        57.27469        -0.14399
C         53.83557        56.54634        -0.26507
C         55.01942        58.68665         0.12569
C         53.77129        59.38088         0.10008
C         54.97865        61.50313         0.38854
C         53.76215        60.81175         0.23646
C         56.35481        50.84559         0.12209
C         57.57950        52.98712         0.03139
C         56.35649        52.25266         0.03957
C         57.61406        54.37843        -0.16879
C         56.34571        55.05973        -0.48419
C         57.54960        57.25584         0.03629
C         56.31830        56.61590        -0.36972
C         57.49720        58.62162         0.66481
C         56.21853        59.37816         0.37828
C         57.42032        61.52148         0.70257
C         56.22555        60.81438         0.48931
C         58.79719        55.14177        -0.11646
C         60.00041        57.31160         0.17175
C         58.78087        56.56516        -0.00256
C         60.00872        58.70860         0.23869
C         58.69127        59.45573         0.16559
C         59.92734        61.59476         0.36481
C         58.73683        60.82310         0.87115
C         61.17371        59.49167         0.18683
C         61.08983        60.91597         0.11796
O         56.40329        55.90488        -1.65692
O         49.40344        54.43265        -2.01060
O         45.59915        39.55808        -1.15559
O         47.03322        50.34841         1.68584
O         46.50203        42.68343        -1.77665
O         49.18972        42.00773        -2.00928
O         50.84720        48.01864         1.46978
O         40.86911        54.49685         2.14478
O         36.50161        51.23253        -1.65694
O         35.37828        58.01656        -1.20134
O         40.34920        49.82301        -1.68844
H         40.27667        50.69776        -2.12476
O         38.54740        46.20155        -1.58447
H         39.14356        46.72379        -2.16145
O         44.14059        41.83570        -2.20906
H         45.00849        42.22884        -2.47958
O         52.27442        54.68390         1.37534
H         52.75651        54.03873         1.93466
O         43.70764        50.72882        -1.66910
H         44.40686        51.26279        -2.10113
O         49.16216        40.62498        -2.35026
H         48.20964        40.45670        -2.55883
O         33.99632        59.25768         1.95655
H         33.20235        59.74623         2.26024
O         52.43200        52.69548        -1.74416
H         53.02066        53.32308        -2.21727
O         43.98608        34.99683         2.35640
H         44.79815        34.50341         2.60327
O         48.65911        56.93831        -2.25709
H         49.14407        56.25891        -2.77807
O         58.95857        60.63469         2.32138
H         59.88841        60.34172         2.43435
O         44.15757        59.38914         2.43862
H         43.38120        59.86859         2.79929
O         51.56972        46.68469        -1.88469
H         51.43348        45.81573        -2.32007
O         38.86475        56.40954         2.58112
H         39.58693        55.80320         2.88031
O         47.09609        54.87020         1.72159
H         46.46368        55.24836         2.36809
O         57.57371        58.39717         2.09927
H         57.89309        59.24097         2.51335
O         58.45550        59.74527        -1.23394
H         58.54024        58.90853        -1.73747
O         43.32367        39.88247         1.71194
H         42.65112        39.25552         2.04919
O         51.45876        52.36162         1.76770
H         50.70155        51.86548         2.14679
O         43.09756        39.44509        -1.74905
H         43.71552        40.09152        -2.18042
O         36.46332        51.78359         1.96565
H         36.47056        52.61931         2.47810
O         38.22423        46.16552         2.06055
H         37.49606        45.86302         2.64344
O         44.93439        42.10095         1.41585
H         43.98842        41.96575         1.67437
O         42.95511        50.05202         1.85158
H         42.14509        49.65873         2.25313
O         40.26381        48.77151         1.82090
H         39.81662        47.98069         2.19878
O         36.65393        50.03884        -2.45982
H         35.75521        49.62760        -2.42792
O         46.81017        54.32295        -1.85710
H         47.48980        54.10665        -2.53415
O         51.84582        55.12656        -2.19804
H         51.03860        54.96490        -2.74031
O         54.50129        46.18547        -1.52770
H         53.81459        46.53235        -2.13910
O         41.93806        42.12866         1.75185
H         41.29864        42.69899         2.23032
H         29.44512        56.66997        -0.55908
H         28.26574        58.83028        -0.86072
H         30.44361        62.55307        -0.54566
H         28.31705        61.31316        -0.89609
H         31.87153        52.35644        -0.12384
H         30.65314        54.50901        -0.33400
H         32.87883        62.57287        -0.25182
H         34.34471        48.06475         0.18789
H         33.08704        50.21851         0.13018
H         35.35323        62.57455         0.14697
H         36.92052        43.77364         0.76082
H         35.59738        45.98318         0.56604
H         37.81473        62.56156         0.55358
H         39.23966        39.51116         0.42194
H         38.06947        41.66356         0.39185
H         40.25800        62.54587         0.61774
H         41.78753        35.26959         0.34541
H         40.56907        37.46315         0.61331
H         42.68726        62.55804         0.37648
H         45.17844        31.88495         0.07310
H         43.03116        33.07811         0.35959
H         45.14100        62.57648         0.16098
H         47.35495        33.06213         0.30802
H         48.65249        35.20020         0.42299
H         47.60800        62.58007         0.12196
H         49.91024        37.39633         0.52287
H         51.13151        39.58826         0.64673
H         50.05270        62.57608         0.15879
H         52.35203        41.72364         0.51267
H         53.58532        43.81153         0.39079
H         52.49919        62.58921         0.29040
H         54.79102        46.01013         0.51175
H         56.11472        48.14471         0.04323
H         54.96767        62.60047         0.46661
H         57.31539        50.30961         0.14979
H         58.52403        52.44312         0.18131
H         57.38440        62.61686         0.80560
H         59.75869        54.62219         0.00907
H         60.95609        56.76571         0.15637
H         59.88824        62.69195         0.30541
H         62.15693        59.00511         0.10948
H         62.00269        61.47598        -0.13568
