         424
 CSIRO Nanostructure Databank - Neutral Graphene Oxide Data Set
C          1.28404         2.05480        -0.39972
C          1.25440         3.45553        -0.31273
C          2.48803         1.37183        -0.39202
C          2.43975         4.20560        -0.21425
C          1.22347         6.39004        -0.13408
C          1.21333         7.77427        -0.05337
C          2.43005         5.65981        -0.12905
C          2.41181         8.51541         0.02915
C          1.20099        10.70205         0.17406
C          1.20113        12.08193         0.27627
C          2.40686         9.96461         0.11975
C          2.40795        12.81864         0.32441
C          1.20735        15.01907         0.44467
C          1.21548        16.39790         0.50112
C          2.41642        14.26595         0.43618
C          2.43472        17.11731         0.57278
C          2.45665        18.54318         0.60599
C          3.71488         2.08506        -0.29308
C          3.68930         3.51712        -0.20152
C          4.94905         1.40197        -0.28745
C          4.91817         4.23871        -0.09843
C          3.65831         6.37795        -0.04177
C          3.64833         7.80758         0.02809
C          4.90660         5.67195        -0.01989
C          4.88552         8.52908         0.09023
C          3.63709        10.67629         0.16412
C          3.63740        12.10390         0.25885
C          4.88118         9.95949         0.13540
C          4.88230        12.81677         0.29276
C          3.65077        14.95439         0.52617
C          3.66778        16.39339         0.61705
C          4.89106        14.23261         0.44789
C          4.88504        17.10244         0.70651
C          3.64754        19.22536         0.63305
C          4.89449        18.52098         0.66593
C          6.17084         2.10004        -0.18602
C          6.15310         3.53820        -0.08432
C          7.40611         1.41247        -0.18421
C          7.38440         4.24994         0.02991
C          6.12931         6.38658         0.07748
C          6.11882         7.82094         0.11565
C          7.37513         5.68100         0.12310
C          7.35144         8.53834         0.16926
C          6.10884        10.67227         0.15794
C          6.11415        12.10588         0.21437
C          7.34834         9.96366         0.16193
C          7.34695        12.81754         0.22767
C          6.13673        14.91975         0.53026
C          6.17066        16.36444         0.97376
C          7.33916        14.23032         0.39138
C          7.39599        17.10619         0.50006
C          6.12307        19.22574         0.59744
C          7.35523        18.55055         0.43505
C          8.63241         2.10426        -0.07525
C          8.61726         3.54284         0.03724
C          9.86610         1.41565        -0.07051
C          9.84697         4.25184         0.15827
C          8.60021         6.39000         0.24908
C          8.59270         7.83491         0.26236
C          9.83749         5.68009         0.28117
C          9.80230         8.55793         0.31107
C          8.58269        10.67891         0.13436
C          8.59349        12.10872         0.12190
C          9.81299         9.96413         0.17404
C          9.81682        12.81371        -0.04139
C          8.64569        14.95426         0.64004
C          8.57468        16.42471         0.28838
C          9.83546        14.24760         0.03905
C          9.77972        17.12739        -0.06772
C          8.55432        19.25441         0.22721
C          9.77724        18.58025        -0.02981
C         11.09560         2.10566         0.06685
C         11.07830         3.54145         0.18604
C         12.33094         1.42529         0.07845
C         12.30878         4.24827         0.33582
C         11.07795         6.37947         0.38186
C         11.08370         7.86004         0.67589
C         12.28810         5.68967         0.37296
C         12.31594         8.55863         0.15563
C         11.05863        10.66622        -0.04833
C         11.04007        12.09377        -0.26528
C         12.25687         9.94393        -0.15852
C         12.23240        12.79168        -0.57616
C         10.96669        14.96927        -0.30991
C         10.95532        16.40501        -0.33496
C         12.13820        14.25594        -0.94832
C         12.17726        17.10914        -0.75494
C         10.97882        19.29565        -0.11268
C         12.20685        18.67223        -0.56344
C         13.56010         2.11230         0.30262
C         13.51936         3.54223         0.47498
C         14.78187         1.42480         0.31073
C         14.76404         4.29203         0.69657
C         13.55001         6.41853         0.34451
C         13.51758         7.85624         0.13165
C         14.74672         5.73824         0.42328
C         14.76949         8.53014        -0.17274
C         13.44222        10.60117        -0.81794
C         13.46617        12.10727        -0.68504
C         14.75936         9.93832        -0.52720
C         14.69144        12.78822        -0.84269
C         13.44382        15.00471        -0.80975
C         13.47327        16.38484        -0.74478
C         14.68032        14.24914        -1.07407
C         14.70922        17.13242        -0.72536
C         13.50930        19.27354        -0.34431
C         14.70903        18.55944        -0.50270
C         16.06470         2.02446         0.82839
C         16.07959         3.56037         0.78357
C         17.29995         1.38908         0.25314
C         17.29329         4.28389         0.30098
C         16.05274         6.48159         0.55508
C         15.95754         7.84259        -0.08043
C         17.25945         5.65951         0.12127
C         17.17048         8.47602        -0.67133
C         15.94710        10.66471        -0.62501
C         15.94397        12.10721        -0.77474
C         17.21147         9.97700        -0.51602
C         17.18440        12.81240        -0.75800
C         15.98486        15.00358        -1.09213
C         15.95644        16.45769        -0.81032
C         17.23469        14.25041        -0.82851
C         17.16617        17.14216        -0.65938
C         15.95481        19.23524        -0.35984
C         17.17888        18.55579        -0.42728
C         18.46147         2.07137        -0.00133
C         18.48882         3.53832        -0.02001
C         19.70160         1.35609        -0.18572
C         19.66646         4.20467        -0.33870
C         18.46384         6.36452        -0.25523
C         18.44537         7.74928        -0.38473
C         19.70548         5.63299        -0.39790
C         19.66188         8.50732        -0.66177
C         18.40367        10.66813        -0.50415
C         18.42287        12.10374        -0.62024
C         19.67582         9.93116        -0.15206
C         19.66358        12.78750        -0.60191
C         18.42410        14.93725        -0.65916
C         18.48099        16.43446        -0.89228
C         19.67475        14.22828        -0.52278
C         19.57083        17.09289        -0.06879
C         18.42891        19.25880        -0.28478
C         19.63387        18.57943        -0.11784
C         20.91052         2.00572        -0.38551
C         20.89864         3.46037        -0.78993
C         22.15421         1.32798        -0.34848
C         22.18557         4.18568        -0.46495
C         20.93541         6.30586        -0.56117
C         20.96633         7.76189        -0.73453
C         22.18205         5.60845        -0.45516
C         22.20913         8.50620        -0.48907
C         20.94607        10.66474        -0.49259
C         20.90635        12.04912        -0.59709
C         22.19348         9.93488        -0.50163
C         22.17579        12.77862        -0.74390
C         20.86311        14.92763        -0.26193
C         20.80946        16.31293         0.23460
C         22.16175        14.30181        -0.50292
C         22.08304        17.04854         0.64505
C         20.89111        19.21349        -0.00417
C         22.10213        18.51419         0.22209
C         23.38451         2.02096        -0.37748
C         23.38690         3.47311        -0.38336
C         24.62148         1.33433        -0.32676
C         24.63809         4.17777        -0.26506
C         23.40866         6.33427        -0.34278
C         23.40894         7.78193        -0.34712
C         24.63520         5.62639        -0.23472
C         24.64485         8.49285        -0.26453
C         23.42685        10.63945        -0.46869
C         23.44432        12.07360        -0.51803
C         24.66393         9.92070        -0.34541
C         24.63010        12.80383        -0.40474
C         23.40440        14.93915        -0.05277
C         23.37412        16.33361         0.29388
C         24.62062        14.21890        -0.15448
C         24.55202        17.03978         0.44248
C         23.32362        19.18081         0.23249
C         24.57514        18.49646         0.45138
C         25.84518         2.02465        -0.27414
C         25.83693         3.45776        -0.21987
C         27.10019         1.32369        -0.20910
C         27.15120         4.15249         0.03236
C         25.86822         6.34244        -0.17010
C         25.86878         7.77398        -0.20037
C         27.11548         5.64536        -0.20060
C         27.09610         8.48963        -0.14630
C         25.89166        10.62231        -0.29675
C         25.94365        12.09424        -0.61954
C         27.10899         9.91991        -0.14275
C         27.15065        12.78711        -0.04052
C         25.86459        14.87806         0.14041
C         25.82644        16.28550         0.69107
C         27.08916        14.19756         0.18926
C         27.05900        17.07865         0.26280
C         25.76963        19.19037         0.53519
C         27.07060        18.49919         0.86468
C         28.32317         1.98076        -0.31810
C         28.29905         3.44220        -0.71705
C         29.56161         1.32620        -0.13742
C         29.60473         4.16221        -0.50039
C         28.31124         6.34587        -0.29091
C         28.32584         7.77444        -0.15892
C         29.57040         5.65223        -0.76177
C         29.53752         8.48163         0.04117
C         28.35055        10.62747         0.00965
C         28.33836        12.06680         0.13493
C         29.55914         9.89529         0.14142
C         29.57623        12.76329         0.42455
C         28.32076        14.92573         0.51454
C         28.31072        16.30502         0.60033
C         29.57195        14.18962         0.58266
C         29.51818        17.09136         0.87645
C         28.33686        19.20778         0.43191
C         29.52611        18.53930         0.52575
C         30.78880         2.02204        -0.14262
C         30.79355         3.47862        -0.30553
C         32.01931         1.34900         0.01530
C         32.06021         4.16721        -0.25780
C         30.81578         6.33178        -0.30744
C         30.77382         7.69570         0.17625
C         32.09564         5.62846        -0.61018
C         32.06653         8.46015         0.35757
C         30.81657        10.60562         0.36002
C         30.79124        12.05482         0.48650
C         32.02328         9.93445         0.40759
C         32.03240        12.76693         0.58472
C         30.79306        14.88134         0.66667
C         30.83992        16.33608         0.86963
C         32.03113        14.18909         0.57996
C         32.07960        17.06612         0.54614
C         30.81572        19.17469         0.37018
C         32.01771        18.49942         0.42736
C         33.25453         2.03199         0.04207
C         33.26591         3.48141        -0.07592
C         34.48550         1.34298         0.13439
C         34.51965         4.18748        -0.02437
C         33.34984         6.33112        -0.16731
C         33.32484         7.81302        -0.12265
C         34.52576         5.63619        -0.08125
C         34.60038         8.57329         0.02690
C         33.27636        10.60608         0.93197
C         33.27513        12.09081         0.71662
C         34.58924         9.97279         0.51816
C         34.47915        12.79513         0.68666
C         33.26495        14.90029         0.44621
C         33.26661        16.35163         0.34726
C         34.47105        14.18187         0.40619
C         34.51099        17.03745         0.09491
C         33.30945        19.28894         0.39524
C         34.54661        18.47249         0.08043
C         35.71645         2.02660         0.17427
C         35.73302         3.47266         0.14628
C         36.95364         1.33225         0.27334
C         36.97422         4.15611         0.31555
C         35.86515         6.33944        -0.22865
C         35.85778         7.81508         0.11606
C         36.93869         5.63624         0.59476
C         37.02155         8.45031         0.41270
C         35.75446        10.63487         0.70631
C         35.77463        12.11200         1.07277
C         37.06556         9.89027         0.85582
C         37.02556        12.82053         0.54806
C         35.69544        14.80828        -0.20508
C         35.71170        16.31208        -0.10811
C         37.00302        14.12721         0.15145
C         36.92116        16.97132        -0.37168
C         35.72823        19.13068        -0.18693
C         36.94227        18.41885        -0.47963
C         38.16885         2.01399         0.35816
C         38.18116         3.45682         0.40412
C         39.42235         1.31065         0.44822
C         39.44275         4.15931         0.52290
C         38.27294         6.33586         0.47111
C         38.28690         7.72376         0.44618
C         39.48900         5.59138         0.52525
C         39.52763         8.45598         0.44429
C         38.23149        10.64048         0.18983
C         38.34248        12.08327         0.74532
C         39.53226         9.87497         0.33428
C         39.53973        12.77539         0.13323
C         38.22730        14.86604        -0.13711
C         38.15377        16.22402        -0.43720
C         39.50506        14.15918        -0.15626
C         39.38927        17.00422        -0.67065
C         38.07995        19.08520        -0.91409
C         39.23176        18.29326        -1.45448
C         40.60510         1.98464         0.55918
C         40.64682         3.42398         0.58689
C         41.88137         4.12428         0.66255
C         40.73511         6.28125         0.56939
C         40.75414         7.73129         0.52043
C         41.92419         5.50472         0.64777
C         41.96035         8.47669         0.52343
C         40.74128        10.57890         0.26614
C         40.73419        12.03150         0.00654
C         41.95394         9.85399         0.39534
C         41.89680        12.69552        -0.42688
C         40.71053        14.81843        -0.53062
C         40.71886        16.28764        -0.73208
C         41.88527        14.06664        -0.66964
C         41.81530        16.98939        -1.40030
C         40.51892        19.05390        -1.55660
C         41.71911        18.36568        -1.63967
O         12.04141        17.99075        -1.87782
O         15.48900         4.07777         2.03344
O         30.20043        16.76846         2.12613
O         20.26134         8.26186        -1.96753
O         22.24445        13.71812        -1.85785
O         40.25906        17.05213         0.48609
O         31.47339         7.83039         1.52923
O         33.91998         8.45925        -1.30473
O         22.10066        17.06430         2.10661
O         15.33368        14.63352        -2.35635
O         27.01392        17.25131        -1.17496
H         26.93330        16.36352        -1.58484
O         36.51744         5.77835         1.98894
H         37.17001         5.30780         2.54886
O         28.01249         3.48566        -2.13985
H         28.39010         4.33307        -2.49033
O         32.20630         5.63988        -2.12706
H         32.99174         5.09598        -2.35795
O         18.85119        16.63859        -2.28845
H         18.14486        16.25172        -2.84819
O         38.87496        17.86095        -2.82702
H         38.69964        18.66820        -3.35488
O         27.15203        18.43746         2.31307
H         26.63308        17.64979         2.61322
O         19.73093        16.50710         1.25589
H         21.15635        17.12299         2.38841
O         16.08260         1.61663         2.24097
H         15.63790         2.34712         2.73576
O         27.44959         3.98347         1.45375
H         26.72272         4.39429         1.96712
O         37.95118        10.73691        -1.22317
H         37.18247        11.33364        -1.34954
O         33.20488        20.40503        -0.49947
H         33.09309        20.05963        -1.40849
O         29.50185         5.77940        -2.25283
H         30.43818         5.69483        -2.57333
O         36.20598         6.21900        -1.63361
H         35.63358         6.84675        -2.12632
O         11.17327         7.96715         2.14700
H         10.38483         7.51962         2.52130
O         33.22974        10.35924         2.38053
H         32.43447        10.80984         2.73592
O         20.82471         3.45401        -2.26251
H         21.62816         2.99796        -2.59208
O         16.24444         6.72144         1.99384
H         16.08264         5.85073         2.43537
O          6.31352        16.29874         2.45215
H          5.49673        15.88367         2.80433
O         17.02596         8.28874        -2.14083
H         17.90281         8.47126        -2.54730
O         38.61502        12.00991         2.17191
H         38.77908        12.92253         2.48962
O         19.67042         9.78623         1.30939
H         19.57565        10.67990         1.70132
O         13.21731        10.36992        -2.26657
H         13.90222        10.87789        -2.75308
O         35.85963        12.21215         2.52193
H         36.65198        11.67919         2.78567
O         11.86341        14.25015        -2.39575
H         11.91185        15.17812        -2.71208
O         25.88290        16.11066         2.15550
H         24.98402        15.85680         2.45706
O         37.32051         9.83900         2.28935
H         36.62251         9.28203         2.69499
O          8.83726        14.91716         2.09641
H          8.06959        15.40174         2.49099
O         35.54807        14.51859        -1.65037
H         34.78173        15.03632        -1.97751
O         26.15994        12.15815        -2.09071
H         25.35594        11.79035        -2.51737
H          0.33804         1.50056        -0.47597
H          0.27770         3.95703        -0.32470
H          2.50874         0.27493        -0.46203
H          0.26095         5.86593        -0.20055
H          0.24335         8.28848        -0.06020
H          0.23405        10.18287         0.14473
H          0.23450        12.60020         0.32477
H          0.24039        14.50275         0.38325
H          0.26691        16.95387         0.48317
H          1.50237        19.08939         0.58633
H          4.95886         0.30449        -0.36308
H          3.66032        20.32484         0.62607
H          7.41064         0.31547        -0.26616
H          6.10698        20.32537         0.56634
H          9.87055         0.31949        -0.16265
H          8.54330        20.35420         0.23792
H         12.34664         0.33292        -0.04967
H         11.00201        20.35200         0.19292
H         14.76701         0.33237         0.17485
H         13.54795        20.30620         0.03312
H         17.31993         0.28805         0.25571
H         15.94876        20.32221        -0.19056
H         19.69317         0.26548        -0.03183
H         18.41536        20.35889        -0.26419
H         22.16262         0.23609        -0.20679
H         20.93844        20.30644        -0.13332
H         24.62133         0.23404        -0.33344
H         23.34673        20.26688         0.05187
H         27.08134         0.23351        -0.05293
H         25.75007        20.29120         0.49704
H         29.56772         0.24376         0.06656
H         28.31611        20.28094         0.18598
H         32.01701         0.25201         0.10628
H         30.83861        20.26622         0.22842
H         34.48082         0.24330         0.17772
H         33.45270        19.73132         1.42169
H         36.94781         0.23191         0.28932
H         35.73539        20.22993        -0.22764
H         39.41009         0.21109         0.42168
H         38.09132        20.18466        -0.96705
H         41.55424         1.43203         0.62014
H         42.81679         3.54866         0.71919
H         42.90186         6.00342         0.69526
H         42.92649         7.96075         0.60850
H         42.91429        10.38796         0.39207
H         42.83456        12.14088        -0.56463
H         42.82019        14.56079        -0.96747
H         42.75154        16.46277        -1.63055
H         40.48722        20.13418        -1.76334
H         42.62838        18.91195        -1.93515
