         671
 CSIRO Nanostructure Databank - Neutral Graphene Oxide Data Set
C          6.12674        31.86858         1.77723
C          6.14417        33.22722         1.97572
C          8.55187        27.64879         1.09226
C          8.56078        28.95490         1.52681
C          7.37835        29.76829         1.42254
C          8.57657        31.81720         2.29809
C          7.33857        31.09556         1.78534
C          8.65130        33.22517         1.68507
C          7.36897        33.98020         1.97930
C          8.56673        36.10690         1.76503
C          7.38372        35.35046         2.07782
C          8.50365        37.48532         1.61300
C         10.78993        23.28743         0.37273
C         10.83009        24.66394         0.55180
C          9.64340        25.49569         0.66174
C         10.99421        27.25423         1.78253
C          9.69319        26.78374         1.15008
C         11.09871        28.78639         2.16473
C          9.73448        29.54821         2.28387
C         10.96004        31.69278         1.59013
C          9.82832        31.04462         1.99170
C         11.16513        33.20103         1.64138
C          9.92271        33.99938         2.12119
C         10.83593        36.01524         0.84414
C          9.81365        35.39346         1.51409
C         10.69906        37.44880         0.38530
C          9.61061        38.22490         1.09952
C         10.79063        40.34444         0.67001
C          9.63029        39.60564         1.09813
C         10.81662        41.73391         0.66334
C         13.18011        18.90287        -0.37232
C         13.06779        20.36081        -0.49623
C         11.92807        21.12338         0.01312
C         13.26486        23.19918         0.14309
C         11.98162        22.51019         0.14564
C         13.27982        24.59251         0.52085
C         12.11271        25.32139         0.64001
C         13.45748        27.42776         1.09984
C         12.11142        26.82763         0.79032
C         13.46973        28.86649         1.27932
C         12.18573        29.55297         1.43612
C         13.38187        31.67263         0.84566
C         12.14770        30.92240         1.29743
C         13.23541        33.17773         1.16890
C         12.00563        33.79504         0.48837
C         13.25613        35.99568         0.39158
C         12.06557        35.31049         0.56128
C         13.25899        37.45690         0.22161
C         12.01221        38.19493         0.35342
C         13.17807        40.33358        -0.05582
C         11.98094        39.57650         0.32533
C         13.23569        41.77958         0.17910
C         12.01506        42.49868         0.40802
C         13.26256        44.60851         0.14512
C         12.04728        43.89708         0.39477
C         13.29380        46.00560        -0.05318
C         15.63701        14.60536        -0.71417
C         15.57830        16.03359        -0.71947
C         14.41206        16.77758        -0.58035
C         15.60880        18.98636        -0.77456
C         14.37127        18.22588        -0.59416
C         15.64220        20.35497        -0.74194
C         14.39825        21.14551        -0.68326
C         15.75079        23.16164        -0.12099
C         14.45510        22.52935        -0.18884
C         15.85242        24.51480         0.48485
C         14.57214        25.23523         0.83571
C         15.93934        27.33539         1.17457
C         14.61335        26.69785         1.02867
C         15.93603        28.87323         1.25222
C         14.64733        29.57197         1.30288
C         15.82688        31.78339         0.89915
C         14.63924        31.07091         1.50759
C         15.78708        33.12805         0.78133
C         14.58316        33.95469         1.24582
C         15.71759        35.99153         0.31483
C         14.54594        35.32272         0.54592
C         15.72146        37.37347        -0.31355
C         14.44852        38.11787        -0.00323
C         15.73415        40.31076         0.01546
C         14.48180        39.56843        -0.23554
C         15.69997        41.67911         0.13290
C         14.46362        42.43450         0.09473
C         15.70569        44.54881        -0.21005
C         14.49478        43.87469         0.04159
C         15.73561        45.95090        -0.36205
C         14.49958        46.68377        -0.33190
C         15.70739        48.73708        -0.95794
C         14.52262        48.07205        -0.67012
C         15.66469        50.13481        -1.46192
C         18.16613        10.35760        -1.12484
C         18.10037        11.73503        -0.83809
C         16.90348        12.47688        -0.86942
C         18.10594        14.63181        -0.52560
C         16.85209        13.89208        -0.71311
C         18.09013        16.01892        -0.54488
C         16.86348        16.75092        -0.90588
C         18.15341        18.97104        -0.60121
C         16.89084        18.24863        -0.93147
C         18.17045        20.37234        -0.60766
C         16.91997        21.10888        -1.04511
C         18.17588        23.22093        -0.49374
C         16.90945        22.52404        -0.53102
C         18.08110        24.72109        -0.67550
C         17.04815        25.33750         0.22342
C         18.30241        27.45563         0.27456
C         17.10511        26.67590         0.53244
C         18.29045        28.88243         0.48277
C         17.10545        29.57882         0.74341
C         18.30064        31.76344         0.48633
C         16.99694        31.01993         0.31458
C         18.28962        33.14248         0.43672
C         16.97089        33.84657         0.16246
C         18.26422        35.97735         0.05161
C         17.02932        35.30773         0.62751
C         18.26584        37.46905        -0.10271
C         16.97907        38.18782         0.00275
C         18.23661        40.31492         0.24214
C         16.97961        39.55865         0.11342
C         18.21550        41.68212         0.36837
C         16.93468        42.47631         0.46308
C         18.22129        44.51198        -0.42382
C         16.93980        43.72045        -0.46811
C         18.22544        45.87338        -0.58162
C         16.97312        46.64766        -0.59986
C         18.23234        48.71423        -1.26628
C         16.95544        48.02121        -0.85816
C         18.43669        50.10697        -0.69265
C         16.52466        51.08372        -1.02826
C         18.23535        53.04885        -1.30023
C         16.82465        52.46848        -1.55639
C         18.30476        54.44641        -1.43145
C         20.75136         6.20838        -1.87353
C         20.67916         7.58863        -1.73252
C         19.43299         8.27024        -1.50046
C         20.69640        10.31541        -0.85424
C         19.38683         9.62436        -1.18993
C         20.57663        11.81251        -1.14269
C         19.37924        12.40711        -0.38516
C         20.56874        14.57294        -0.40104
C         19.35404        13.91195        -0.46405
C         20.56859        16.00613        -0.08591
C         19.28347        16.78439        -0.18505
C         20.55882        18.96154        -0.17378
C         19.34371        18.25918        -0.34462
C         20.58956        20.36821        -0.18016
C         19.37382        21.08160        -0.37551
C         20.65175        23.26640        -0.12040
C         19.36817        22.53186        -0.41896
C         20.71301        24.65149        -0.75184
C         19.43001        25.43910        -0.69643
C         20.71068        27.54514        -0.13183
C         19.47563        26.85333        -0.24106
C         20.74630        28.91590         0.20724
C         19.52246        29.62336         0.35567
C         20.76870        31.74374         0.47187
C         19.52885        31.03107         0.48803
C         20.75805        33.14439         0.43711
C         19.53343        33.87230         0.41274
C         20.77901        36.01870         0.19751
C         19.54663        35.28213         0.27118
C         20.76939        37.47995         0.13227
C         19.53516        38.19666         0.09762
C         20.74651        40.30619         0.36202
C         19.50820        39.58934         0.23472
C         20.74728        41.71565         0.38416
C         19.47146        42.50482         0.50519
C         20.75320        44.48935        -0.34953
C         19.48455        43.68291        -0.50589
C         20.74473        45.83341        -0.67473
C         19.50071        46.57469        -0.78077
C         20.74870        48.66879        -1.28509
C         19.49318        47.92348        -1.05498
C         20.76073        50.16685        -1.38478
C         19.49301        50.87704        -1.09227
C         20.70791        53.03422        -1.18923
C         19.46063        52.33811        -1.14392
C         20.73926        54.44744        -1.23496
C         19.51636        55.15490        -1.37958
C         20.69572        57.30940        -1.45802
C         19.54969        56.59531        -1.55848
C         20.69628        58.80970        -1.63823
C         23.27304         3.46596        -2.34345
C         22.06432         4.10997        -2.10164
C         23.17047         6.26050        -2.41824
C         21.99259         5.52202        -2.12355
C         23.09695         7.73445        -2.43117
C         21.89159         8.38464        -1.88288
C         23.14136        10.48498        -1.51788
C         21.90624         9.72316        -1.55600
C         23.13623        11.85804        -1.12439
C         21.87998        12.54499        -0.90910
C         23.09068        14.67204        -0.61915
C         21.83246        13.89100        -0.62572
C         23.06342        15.98530         0.08320
C         21.83989        16.76314        -0.23921
C         23.10246        18.92516         0.19147
C         21.85336        18.23955        -0.17595
C         23.12420        20.31263         0.14939
C         21.87494        21.06908        -0.08964
C         23.21646        23.13481        -0.22031
C         21.90753        22.43202        -0.22571
C         23.26844        24.61893        -0.40203
C         22.01767        25.39631        -0.66076
C         23.22368        27.49781         0.19943
C         22.00362        26.86693        -0.36047
C         23.22741        28.86693         0.44852
C         21.99940        29.61951         0.35404
C         23.27026        31.72734         0.59547
C         22.01227        31.01426         0.46303
C         23.29267        33.15508         0.53556
C         22.03184        33.84902         0.07230
C         23.27641        36.01618         0.18033
C         21.98330        35.32859         0.31422
C         23.27798        37.50170         0.01391
C         21.98676        38.20213         0.15901
C         23.23322        40.32444         0.56334
C         21.99558        39.60390         0.33568
C         23.20334        41.74339         0.57779
C         21.96890        42.42930         0.33204
C         23.21240        44.53614         0.05786
C         21.97117        43.81890         0.00388
C         23.25430        45.89166        -0.37456
C         22.05219        46.48164        -1.07743
C         23.23926        48.75313        -0.67357
C         21.99541        47.97712        -0.86271
C         23.26930        50.27417        -0.66152
C         21.99466        50.93550        -1.12579
C         23.24399        53.04666        -1.06642
C         21.97501        52.31258        -1.12342
C         23.19873        54.48845        -1.03971
C         21.99530        55.15955        -1.12849
C         23.21246        57.27648        -1.67083
C         21.98888        56.66927        -1.00559
C         23.14633        58.55879        -2.29977
C         21.93167        59.30378        -2.36047
C         23.06465        61.04329        -3.63351
C         21.90162        60.52208        -3.02393
C         24.43180         4.20356        -2.61871
C         25.64904         6.38148        -3.01339
C         24.39260         5.60465        -2.65924
C         25.68751         7.77623        -2.42118
C         24.40809         8.51360        -2.37573
C         25.60932        10.49299        -1.47361
C         24.38441         9.84948        -1.76724
C         25.59938        11.85287        -1.09962
C         24.37987        12.53107        -0.97478
C         25.63810        14.66651        -0.24269
C         24.40778        13.99044        -0.75384
C         25.59964        15.96745         0.21897
C         24.31564        16.67088         0.47888
C         25.60793        18.85493         0.56643
C         24.28027        18.17006         0.80932
C         25.59358        20.27906         0.46262
C         24.36549        20.99342         0.36598
C         25.67674        23.15259         0.26589
C         24.35160        22.48331         0.55280
C         25.68912        24.59677         0.21160
C         24.44345        25.35083         0.10903
C         25.65759        27.34763         0.95224
C         24.40773        26.70643         0.37419
C         25.63243        28.85487         0.95803
C         24.46866        29.56073         0.78091
C         25.69294        31.72934         0.98443
C         24.46253        31.01843         0.81427
C         25.71844        33.15456         0.88582
C         24.48900        33.85296         0.66897
C         25.77092        36.07663         0.59122
C         24.46553        35.35203         0.84124
C         25.76783        37.43373         0.52780
C         24.58438        38.28220         0.09591
C         25.66830        40.35443         1.08249
C         24.47955        39.65876         0.71628
C         25.63035        41.79687         1.14920
C         24.41507        42.48229         0.76889
C         25.59598        44.72429         0.81150
C         24.38842        43.88011         0.52404
C         25.64838        46.00634         0.03951
C         24.48201        46.61800        -0.36897
C         25.71012        48.86843        -0.47461
C         24.53712        48.01824        -0.94146
C         25.72409        50.19773        -0.74506
C         24.50160        50.87725        -1.33300
C         25.72089        53.11143        -1.17850
C         24.47761        52.38573        -1.11703
C         25.74052        54.49473        -1.14583
C         24.47976        55.27691        -0.84321
C         25.62503        57.18775        -2.08340
C         24.41947        56.59750        -1.58767
C         25.56345        58.41735        -2.73900
C         24.33350        59.10861        -2.88017
C         24.26141        60.36096        -3.55294
C         26.84518         8.39296        -2.06842
C         28.05529        10.39037        -1.25650
C         26.88336         9.77652        -1.60399
C         28.05932        11.75694        -0.60799
C         26.90512        12.62137        -1.12042
C         28.09292        14.54527        -0.06120
C         26.88865        13.95831        -0.39073
C         28.13542        15.88116         0.57224
C         26.82987        16.65503         0.65758
C         28.05550        18.85535         0.60785
C         26.82042        18.15061         0.63506
C         28.05565        20.26706         0.56111
C         26.84278        20.98610         0.45268
C         28.15412        23.10909         0.11192
C         26.85380        22.42079         0.26255
C         28.16004        24.62258         0.18493
C         26.87560        25.29824         0.27955
C         28.18123        27.47610         0.46764
C         26.86069        26.80102         0.16735
C         28.10273        28.98907         0.40951
C         26.94238        29.51928         1.28417
C         28.12081        31.71417         1.25983
C         26.90857        31.02566         1.16775
C         28.14972        33.13387         1.16060
C         26.96945        33.84295         0.93235
C         28.27485        35.99628         1.01565
C         27.06256        35.27979         0.46278
C         28.30921        37.46196         0.88497
C         27.02915        38.21469         0.59426
C         28.06311        40.03970         1.80234
C         26.92249        39.59145         1.14163
C         28.05000        42.12500         1.78072
C         26.83055        42.60875         1.25730
C         28.11862        44.58003         0.65731
C         26.88185        43.95381         0.80859
C         28.19927        45.99624         0.22519
C         26.94074        46.70986        -0.07973
C         28.20658        48.93623         0.23628
C         26.91256        48.19396         0.05892
C         28.22178        50.44037        -0.00980
C         27.01233        50.92683        -0.81067
C         28.30948        53.08819        -1.04535
C         27.01282        52.36856        -1.20063
C         28.32559        54.59636        -1.17771
C         26.96168        55.22756        -1.39517
C         26.88873        56.51234        -1.87053
C         29.34647        12.53750        -0.72668
C         30.56238        14.66176        -0.45086
C         29.35588        13.87996        -0.41153
C         30.63046        15.99659        -0.06210
C         29.46663        16.63670         0.67701
C         30.61902        18.85637         0.20486
C         29.32570        18.11776         0.32408
C         30.68205        20.27326         0.65945
C         29.32571        21.01438         0.76439
C         30.61797        23.16063         0.60553
C         29.38531        22.43708         0.52911
C         30.62087        24.55996         0.63203
C         29.32844        25.29179         0.86994
C         30.65264        27.45834         0.60862
C         29.35904        26.78862         0.60373
C         30.64454        28.93527         0.62812
C         29.37704        29.64749         0.88224
C         30.58590        31.62571         1.81824
C         29.37464        30.95029         1.27275
C         30.58429        33.12087         1.89455
C         29.49460        33.82628         1.07927
C         30.65731        36.02027         1.59317
C         29.41219        35.31293         1.34690
C         30.67330        37.42252         1.63593
C         29.49121        38.17174         1.41316
C         30.56357        40.37604         2.23855
C         29.39664        39.53138         1.70010
C         30.59342        41.85917         1.73742
C         29.32328        42.60587         1.43245
C         30.59628        44.56641         0.53610
C         29.34745        43.89388         0.85685
C         30.65393        45.92886         0.37722
C         29.43026        46.75368         0.70629
C         30.63198        48.75262        -0.28326
C         29.46631        48.16638         0.16960
C         30.61935        50.16091        -0.69565
C         29.50733        50.95335        -0.61956
C         29.47324        52.38536        -0.90799
C         31.83769        16.73167        -0.16761
C         33.08622        18.87184         0.00544
C         31.91102        18.12606         0.08034
C         33.13825        20.30601         0.19593
C         31.90873        21.03393         0.47339
C         33.11904        23.16667         0.58792
C         31.89624        22.43554         0.61374
C         33.14118        24.57679         0.62717
C         31.87428        25.29646         1.01751
C         33.11986        27.47327         0.71421
C         31.85259        26.77279         0.69586
C         33.15655        28.84424         0.97103
C         31.91133        29.63124         0.99181
C         33.17836        31.60037         1.94332
C         31.86523        30.79365         1.96525
C         33.16919        33.09264         2.13211
C         31.85709        33.90694         2.28828
C         33.08761        35.98542         1.44803
C         31.88695        35.30033         1.69460
C         33.14858        37.40321         1.38028
C         31.94538        38.14083         1.84092
C         33.13883        40.33888         1.46245
C         31.93132        39.64360         1.99728
C         33.09939        41.63827         1.04475
C         31.85881        42.46139         1.18678
C         33.07995        44.44720         0.18297
C         31.77900        43.67553         0.25600
C         33.08032        45.81525        -0.05173
C         31.87698        46.60748        -0.01853
C         31.84724        47.96590        -0.32866
C         34.33730        20.99303         0.20185
C         35.58396        23.20786         0.16536
C         34.42113        22.41091         0.69495
C         35.56312        24.56952         0.13647
C         34.34348        25.29972         0.45147
C         35.56171        27.45318         0.37985
C         34.36438        26.73740         0.52350
C         35.54191        28.96578         0.30042
C         34.37202        29.60159         1.00059
C         35.62619        31.70369         1.28304
C         34.40295        30.93564         1.38996
C         35.64645        33.08519         1.44147
C         34.46540        33.88838         1.94946
C         35.57484        35.92635         0.87189
C         34.30500        35.19200         1.19155
C         35.56340        37.39803         0.93671
C         34.36658        38.09319         1.18757
C         35.60715        40.24415         0.84184
C         34.45329        39.57147         1.54948
C         35.52155        41.58667         0.48399
C         34.30429        42.32236         0.56478
C         34.27687        43.67734         0.21825
C         36.79461        25.33358        -0.31376
C         37.98749        27.50426         0.07037
C         36.80264        26.79568         0.08797
C         38.05333        28.91656         0.38644
C         36.85106        29.62730         0.62164
C         38.10979        31.67101         1.01806
C         36.87275        30.99600         0.95801
C         38.17017        33.10843         1.47171
C         36.86656        33.83664         1.26505
C         38.07958        35.95961         0.88012
C         36.85704        35.20823         1.06492
C         38.03086        37.34149         0.71430
C         36.81326        38.09279         0.80555
C         36.79374        39.49715         0.66356
C         39.27999        29.60869         0.44159
C         40.55804        31.73580         0.67116
C         39.31233        30.98555         0.72921
C         40.57784        33.09674         0.72845
C         39.36836        33.86044         0.93923
C         39.32089        35.22256         0.78306
O         16.22084        28.01109         2.42184
O         33.37352        32.19195         3.27862
O         29.80319        18.56387        -0.99736
O         20.04789        25.01076        -1.97909
O         20.82143        49.32241        -2.61914
O         27.82115        46.22774        -1.18117
O         27.40952        15.99444         1.84570
O         30.04720        20.52618         1.95119
O         14.80806        34.21111         2.66785
O         23.80296        14.72214        -1.90038
O         18.23457        36.55242        -1.29143
O         21.98839        17.48246        -1.49678
O         19.83988        16.35647         1.13189
O         31.48765        42.67872         2.58185
O         22.19215        26.36176        -1.73549
O         23.47857        15.92001         1.47539
O         16.97687        17.48727        -2.19377
O         23.63747         8.39052        -3.62625
O         17.39388        50.70116         0.02407
O         13.51333        20.89033        -1.80616
O         27.96756        37.94250        -0.50152
O         30.14480        32.34358         3.04131
O         31.40861        29.73334        -0.37862
O         15.35854        24.53236         1.86738
O         34.74849        35.26920        -0.18767
O         27.92954        41.09496         2.70813
O         13.70031        39.99422        -1.39653
O         22.47220        48.28615         0.49361
O         27.34896        48.61486         1.41083
O         28.37392        23.95555        -1.09154
O         32.20605        38.78323         3.15914
O         27.19303        51.30000        -2.22980
O         23.60475        23.68937        -1.50768
O         23.39589        36.59566        -1.15820
O         11.72987        28.85764         3.43643
O         34.68364        22.28676         2.16047
H         34.79168        23.19880         2.50678
O         23.42369        50.65559         0.73569
H         22.83854        50.06259         1.26061
O         17.25592        35.34213         2.05741
H         16.45176        34.98018         2.50874
O         19.52661        12.12437         1.03054
H         18.82450        12.61078         1.51017
O         12.45547        33.29292         2.45826
H         13.92058        34.36686         3.07435
O         24.03832        22.73454         1.96688
H         24.67210        22.22174         2.51250
O         13.57853        31.49654        -0.57010
H         12.84402        31.96105        -1.03856
O         22.11533        33.74372        -1.40506
H         21.37927        34.27080        -1.78475
O         22.19379        46.24095        -2.50492
H         22.08890        45.27950        -2.66519
O         19.50800        59.26168        -2.28682
H         19.51075        58.92095        -3.20444
O         30.37183        40.45792         3.65728
H         30.96132        41.16948         3.99104
O         11.15661        26.50862         2.99225
H         11.55793        27.15927         3.63579
O         27.33575        35.19506        -0.98108
H         27.49172        36.12442        -1.28223
O         11.71153        27.39162        -0.49650
H         12.37158        27.12594        -1.17048
O         28.11451        51.09494         1.28173
H         27.59697        50.49335         1.86594
O         16.74739        30.98686        -1.14294
H         17.49910        30.51508        -1.56243
O         16.99845        21.19685        -2.50259
H         16.94848        20.28519        -2.86251
O         24.47480        50.64789        -2.75206
H         25.38297        50.82798        -3.08900
O         29.93370        33.72028        -0.30765
H         29.21182        34.09642        -0.86612
O          9.35758        29.45086         3.69136
H         10.23523        29.26065         4.14151
O         29.05168        25.14792         2.30054
H         29.85994        25.45715         2.77620
O         20.96075        10.12412         0.55788
H         20.89912         9.16532         0.74729
O         24.93704        38.62258        -1.28390
H         24.67125        37.85083        -1.83823
O         16.58661        52.48475        -2.97278
H         17.17210        51.81992        -3.39151
O         37.99019        24.67436         0.10985
H         38.00969        24.66835         1.08843
O         27.30553        29.18349         2.65011
H         26.59617        29.49833         3.24686
O         26.81942         5.64262        -2.66536
H         26.82598         5.51004        -1.69568
O         34.81132        39.58390         2.96881
H         34.02886        39.21834         3.45291
O         31.56725        43.08673        -1.06765
H         31.52433        43.81675        -1.72079
O         26.57949        27.06977        -1.23285
H         27.18693        26.53310        -1.78400
O         22.12449        56.95863         0.43773
H         22.17617        57.93248         0.54246
O         31.73958        34.19198         3.70354
H         31.31215        33.40494         4.11595
O          8.45057        31.94459         3.73987
H          8.66079        31.03333         4.08983
O         35.31247        29.25263        -1.13539
H         36.08950        28.90944        -1.62640
O         31.85214        25.26361         2.51074
H         31.96846        24.32457         2.77656
O         11.66927        33.36665        -0.83196
H         10.71422        33.55386        -0.97049
O         29.34838        46.83767         2.15424
H         28.59912        47.44389         2.36569
O         25.43805        45.13921         2.23475
H         24.59550        45.63942         2.29892
O          8.77486        33.08272         0.24136
H          7.94973        32.66606        -0.08825
O         25.80134        26.88417         2.32014
H         25.02309        27.18583         2.83195
O         27.84913        29.42090        -0.94277
H         28.64412        29.23513        -1.48416
O         20.59921        23.62177         1.31648
H         20.63779        22.79163         1.83878
O         18.11629        48.93640        -2.71708
H         19.03873        49.07529        -3.05818
O         24.65662        47.90073        -2.37957
H         25.42326        47.32474        -2.58110
O         16.78604        42.94704         1.82630
H         17.65725        43.32979         2.09509
O         24.06748        18.28807         2.25141
H         23.60744        17.46299         2.53925
O         27.17791        12.91094        -2.51732
H         26.41353        13.40449        -2.88303
O         16.83400        43.18233        -1.83274
H         16.56197        43.91490        -2.42570
O          9.94873        34.16456         3.54149
H          9.54959        33.35375         3.94901
O         24.56709        55.60785         0.58086
H         23.72010        56.06754         0.81400
O         31.80953        30.13210         3.24849
H         32.01684        30.81283         3.92805
O         20.27171        11.96651        -2.55001
H         21.03511        11.63963        -3.07130
O         38.36248        33.04715         2.93267
H         38.29424        33.96368         3.27572
O         17.50208        24.91139        -2.00532
H         18.22047        24.71546        -2.65116
O         24.19286        35.55591         2.27550
H         24.85384        35.04250         2.78695
O         19.48563        43.13023         1.83418
H         19.68546        42.43136         2.49264
O         14.63931        31.29981         2.92704
H         14.64669        32.27229         3.08772
O         10.26730        37.36221        -1.01877
H         10.34266        38.26055        -1.40594
O         15.69513        37.19389        -1.76084
H         16.54260        36.74751        -2.00779
O         19.55488        43.11505        -1.83928
H         18.62819        42.88679        -2.10859
O         16.79243        33.85317        -1.27345
H         16.63595        32.91604        -1.54759
O         34.84682        34.33710         3.28200
H         34.63492        33.60097         3.90037
O         27.81070        11.54500         0.81677
H         28.57084        11.05077         1.18786
O         29.24072        54.99349        -2.20979
H         28.95159        54.58096        -3.04942
O         29.87084        16.61805         2.07053
H         29.05085        16.49485         2.60605
H          5.16698        31.34582         1.64583
H          5.19583        33.78135         2.04550
H          7.63666        27.25634         0.61766
H          6.46029        29.29247         1.03872
H          6.44464        35.89707         2.25776
H          7.58591        38.02263         1.89835
H          9.82056        22.76692         0.36098
H          8.68407        25.08286         0.31027
H          8.77355        40.16262         1.50834
H          9.89610        42.28244         0.91537
H         12.28034        18.33358        -0.09144
H         10.98773        20.59248         0.22724
H         11.11601        44.46569         0.53702
H         12.35225        46.57484        -0.03136
H         14.69127        14.04137        -0.72584
H         13.45541        16.24747        -0.45192
H         13.56703        48.61399        -0.72911
H         14.91871        50.37918        -2.23278
H         17.23428         9.82619        -1.38031
H         15.96181        11.94772        -1.08837
H         16.09074        53.19363        -1.11018
H         17.37342        55.01115        -1.59056
H         19.83948         5.60544        -1.74853
H         18.49745         7.70178        -1.62070
H         18.61106        57.11339        -1.81117
H         20.69294        59.28000        -0.61065
H         23.32162         2.36832        -2.32109
H         21.15867         3.52639        -1.88336
H         23.01301        62.00857        -4.15623
H         20.95923        61.08639        -3.06712
H         25.38449         3.68899        -2.80739
H         25.66701         6.49826        -4.13305
H         26.48304        58.87009        -3.13861
H         25.17240        60.77722        -4.00641
H         27.79504         7.84069        -2.13986
H         29.00214         9.82941        -1.31383
H         28.73720        55.02226        -0.22068
H         27.81617        57.03901        -2.14089
H         30.28914        12.02103        -0.96636
H         31.46837        14.18229        -0.85389
H         31.55976        50.58399        -1.08174
H         30.43055        52.92859        -0.95117
H         32.74452        16.20612        -0.50629
H         34.03949        18.34587        -0.15778
H         34.04121        46.32981        -0.21012
H         32.77707        48.46427        -0.64195
H         35.27913        20.44864         0.03425
H         36.52424        22.68019        -0.05791
H         36.40875        42.08800         0.06636
H         35.22888        44.17519        -0.02449
H         36.80940        25.30824        -1.44146
H         38.92301        26.97185        -0.15730
H         38.97047        37.89259         0.55722
H         37.71143        40.01606         0.34583
H         40.21748        29.07303         0.23108
H         41.48893        31.17844         0.48989
H         41.52070        33.64278         0.57238
H         40.23180        35.77353         0.50098
