         315
 CSIRO Nanostructure Databank - Neutral Graphene Oxide Data Set
C         30.31002        31.70180         0.22555
C         30.38442        32.92106         0.38288
C         30.42180        36.05341         0.95036
C         30.43315        37.20498         1.38338
C         30.46073        40.41903         1.85743
C         30.40726        41.61578         1.53333
C         32.72143        28.84216         0.10422
C         31.59741        29.37987         0.02921
C         32.76871        31.50243         0.58547
C         31.38911        30.74494         0.48814
C         32.76739        33.00261         0.37293
C         31.51929        33.79793         0.84446
C         32.81983        35.96424         0.66269
C         31.50405        35.22777         0.32569
C         32.84377        37.42518         0.84323
C         31.53395        38.15518         1.22162
C         32.76636        40.27280         1.12125
C         31.64919        39.48735         1.91606
C         32.30777        41.40268         0.26282
C         31.27392        42.27525         0.57211
C         32.58539        44.13329        -0.36338
C         31.55818        43.59675         0.08645
C         35.31710        27.21791        -0.25760
C         35.31839        28.62614         0.33490
C         34.04446        29.39658         0.14060
C         35.34703        31.47405         0.61919
C         34.03009        30.76081         0.33332
C         35.38059        32.94628         0.06999
C         34.05305        33.74694         0.13203
C         35.34398        35.90060         0.84089
C         34.08392        35.31509         0.13053
C         35.40924        37.41418         0.68475
C         34.18202        38.13109         1.23678
C         35.32228        40.27944         0.21189
C         34.12555        39.63769         0.89352
C         35.29802        41.72235        -0.07486
C         34.19130        42.39229        -0.51675
C         35.10932        44.63159        -0.34071
C         33.99218        43.84691        -0.48921
C         35.33276        46.00673        -0.09544
C         37.77991        27.18469        -0.51292
C         36.50526        26.72693        -0.28653
C         37.69858        28.69056        -0.86797
C         36.54037        29.40650        -0.17083
C         37.89493        31.47798         0.08555
C         36.56041        30.74532         0.02238
C         37.83892        32.98780         0.07760
C         36.61745        33.67790         0.64832
C         37.81709        35.95129         0.04401
C         36.56563        35.17564         0.29934
C         37.83902        37.44121         0.12835
C         36.55691        38.12289         0.37965
C         37.84857        40.35379         0.28119
C         36.52307        39.58532         0.24165
C         37.72374        41.68778        -0.49486
C         36.56077        42.54907         0.08704
C         37.71781        44.74499        -0.17344
C         36.48202        43.94095        -0.60246
C         37.71834        46.10150         0.05820
C         36.38468        46.66939         0.01912
C         40.31909        24.46204        -0.43992
C         39.22470        25.02118        -0.54161
C         40.30230        27.17138        -0.44121
C         39.00641        26.45608        -0.95824
C         40.20707        28.66045        -0.67778
C         39.04817        29.37053        -0.69342
C         40.31843        31.54758        -0.24355
C         39.04063        30.91174        -0.80765
C         40.39474        33.07393        -0.29578
C         39.09876        33.70146         0.20784
C         40.39271        35.88748        -0.08617
C         39.10123        35.20436         0.23454
C         40.32988        37.36718        -0.27319
C         39.03422        38.10834        -0.07316
C         40.27147        40.24605        -0.31297
C         39.09553        39.56942        -0.10815
C         40.30187        41.70274        -0.75620
C         39.00881        42.50881        -0.56618
C         40.30520        44.66462         0.12684
C         39.00610        43.99807        -0.33468
C         40.24631        46.17722        -0.19061
C         38.95661        46.83537         0.51193
C         40.21557        48.91280        -0.15273
C         39.18852        48.26165         0.06355
C         42.99171        24.53069        -0.46529
C         41.64263        24.97070        -0.82290
C         42.90851        27.31848        -0.96288
C         41.60941        26.50558        -0.94438
C         42.85559        28.81830        -0.87423
C         41.46224        29.47988        -0.90938
C         43.22879        32.10735        -0.99270
C         41.36566        30.68717        -0.02107
C         42.97792        33.13855        -0.09594
C         41.64153        33.67096         0.40607
C         42.93552        35.96339         0.14683
C         41.64133        35.25802         0.54577
C         42.90482        37.38894        -0.07653
C         41.58263        38.13342         0.12519
C         42.87285        40.28188        -0.21944
C         41.57724        39.49590        -0.58734
C         42.84018        41.74468        -0.72773
C         41.54864        42.44453        -0.21249
C         42.86542        44.64864        -0.21623
C         41.54263        43.97084        -0.57402
C         42.86694        46.13027         0.06360
C         41.55624        46.94717         0.20714
C         42.85710        49.02762         0.03833
C         41.56563        48.38163        -0.53396
C         44.01374        25.21244        -0.45888
C         45.05650        27.38215         0.41258
C         44.34173        26.64415        -0.71629
C         45.18902        28.90610         0.03116
C         44.11539        29.59324        -0.46128
C         45.35224        31.68319         0.23925
C         44.38748        31.10089        -0.83761
C         45.43537        33.19019         0.06421
C         44.14520        33.81926         0.58790
C         45.41264        35.96693         0.03999
C         44.14235        35.29365         0.21851
C         45.37419        37.40498        -0.14361
C         44.09940        38.07805        -0.25130
C         45.38695        40.27387        -0.34634
C         44.12973        39.52207        -0.73462
C         45.38260        41.74355        -0.29498
C         44.09301        42.52339        -0.33630
C         45.41787        44.67480        -0.33286
C         44.10481        43.95954        -0.64266
C         45.27715        46.19680        -0.82654
C         44.13212        46.89379        -0.13923
C         43.86182        48.25160        -0.10435
C         47.55802        27.38469         0.14508
C         46.47630        26.92330         0.50297
C         47.78968        28.83208        -0.20610
C         46.54919        29.52994         0.42548
C         47.89413        31.68140         0.36745
C         46.67287        31.00068         0.17569
C         47.93454        33.09659         0.40406
C         46.66362        33.86721         0.67337
C         47.90111        35.94379        -0.18653
C         46.63820        35.28119         0.11183
C         47.85458        37.46821        -0.02918
C         46.55300        38.14527         0.01763
C         47.77764        40.31071         0.24380
C         46.57023        39.59673        -0.02640
C         47.93497        41.66556        -0.31573
C         46.66294        42.43357        -0.65609
C         48.00064        44.63731        -0.85680
C         46.60317        43.93855        -1.02391
C         47.74636        46.07571        -0.70827
C         46.68150        46.68571        -0.59342
C         50.33334        28.87082         0.42125
C         49.05599        29.49187         0.29417
C         50.33117        31.60183         1.06694
C         49.10224        30.86713         0.53688
C         50.43998        32.95011         0.28360
C         49.21538        33.85846         0.62710
C         50.39484        36.05244         0.46572
C         49.25912        35.21133        -0.14977
C         50.25383        37.33495         0.91023
C         48.98421        38.09645         0.71808
C         50.09762        40.40848         1.41780
C         48.88123        39.61966         0.92335
C         50.25092        41.80370         0.79882
C         49.22203        42.41494        -0.10869
C         50.45222        44.48652         0.13249
C         49.24448        43.90502        -0.47618
C         51.42034        29.44610         0.73516
C         52.76361        31.66707         1.09760
C         51.68969        30.77912         0.98611
C         52.79156        32.92945         1.09308
C         51.75716        33.78616         0.48388
C         52.70343        36.13642         1.20878
C         51.71132        35.28850         0.53416
C         52.55436        37.29680         1.58362
C         51.34162        38.14750         1.72637
C         52.49062        40.50504         1.56123
C         51.43330        39.54511         1.10081
C         52.54572        41.73857         1.52699
C         51.44149        42.74860         1.60320
C         51.36867        43.96029         0.76326
O         39.17147        34.48308         1.50909
O         44.74502        42.21027         0.98858
O         33.06324        41.63765        -0.88266
O         50.42069        41.73311        -0.63320
O         40.46093        36.46926        -1.41175
O         33.19369        33.31207        -0.98360
O         48.43951        38.66977         1.95459
O         42.95245        45.14388         1.20189
O         32.01178        31.03839         1.75989
O         32.00773        38.19820        -0.14644
O         33.85972        40.53564         2.05374
O         47.39459        41.72801        -1.68983
O         43.03162        28.12609        -2.17114
O         48.94021        44.18528        -1.85969
O         41.54479        25.61739        -2.10536
O         36.96635        35.45971        -1.05700
O         38.98992        43.46280        -1.70155
O         52.09696        34.57986        -0.66193
O         48.00469        36.85448        -1.34385
O         35.48921        28.52215         1.77053
H         34.76099        27.96396         2.11900
O         41.48622        47.24695         1.61674
H         42.20131        47.89215         1.81898
O         39.03282        26.50269        -2.39511
H         38.35794        25.87894        -2.73710
O         49.29497        34.28130         2.02015
H         49.47157        33.47106         2.56510
O         40.37283        27.00618         0.99370
H         39.55031        27.35907         1.39505
O         44.19133        39.46030        -2.17513
H         43.31514        39.11779        -2.48573
O         42.27648        30.73938         0.97080
H         42.10885        31.54723         1.52920
O         50.40087        32.52609        -1.07211
H         50.44251        33.32884        -1.64720
O         36.70920        33.51630         2.07272
H         37.48298        34.04665         2.37693
O         50.94105        38.21717         3.08350
H         50.97400        37.31800         3.47048
O         47.69380        29.00555        -1.61790
H         48.45346        28.55837        -2.04634
O         31.52366        33.83245         2.25654
H         31.49295        32.90518         2.58734
O         37.41993        41.28022        -1.84292
H         37.16212        42.09863        -2.33790
O         49.59609        34.93545        -1.51631
H         49.31178        35.71636        -2.04856
O         41.58976        39.19858        -1.99990
H         41.42270        40.05611        -2.47012
O         45.69321        44.66261         1.06998
H         44.84127        44.82792         1.54137
O         34.18448        35.72000        -1.24737
H         33.46846        35.24980        -1.73539
O         46.64822        29.35957         1.86602
H         45.98366        29.99248         2.24078
O         51.52585        39.32337        -0.28771
H         51.60872        40.18413        -0.75699
O         44.31735        27.25448         1.60638
H         44.82979        27.66976         2.33147
O         45.51613        33.51192        -1.34443
H         45.63219        32.69650        -1.88766
O         45.12001        26.79647        -1.87674
H         44.64263        26.40614        -2.63743
O         34.31744        37.99979         2.67657
H         33.60105        38.53767         3.11119
O         41.48982        42.30423         1.20519
H         42.19791        42.84580         1.61382
O         38.06750        40.64701         1.69472
H         38.23283        39.80133         2.16265
O         40.00243        46.32177        -1.58875
H         40.66969        45.78890        -2.08678
O         41.52891        35.54710         1.96951
H         41.52899        36.53688         2.06920
O         40.45398        33.45305        -1.68551
H         39.78476        32.91177        -2.17152
O         45.04448        31.01880        -2.12905
H         45.74523        30.32765        -2.09013
O         40.39823        41.57688        -2.21135
H         39.49993        41.30982        -2.52195
O         42.85983        41.71925        -2.16136
H         42.68144        42.63547        -2.48184
O         38.79216        31.28287        -2.17119
H         39.49057        30.83852        -2.70652
O         35.26363        35.57369         2.23779
H         34.82031        36.32057         2.71423
O         46.32300        43.95932        -2.43310
H         47.06943        43.49785        -2.88216
O         51.06814        43.03075         2.89999
H         50.90795        42.18467         3.37897
O         41.40468        38.28359         1.56234
H         42.02600        38.99671         1.86468
O         36.49660        43.76401        -2.03917
H         36.77176        44.60876        -2.45422
O         42.99081        40.27660         1.21739
H         43.70448        40.92143         1.47299
O         46.56350        33.93020         2.11888
H         47.41763        34.30167         2.44594
O         38.32144        31.23595         1.47117
H         37.59630        31.58739         2.04953
O         50.12875        31.85407         2.47382
H         49.89040        31.00937         2.91191
O         40.35965        44.49883         1.54007
H         41.14160        44.99623         1.88033
O         41.26727        29.90271        -2.30308
H         41.58219        29.14433        -2.85302
O         35.69652        32.81580        -1.32755
H         34.85426        32.75550        -1.83307
O         42.50949        31.96628        -2.11404
H         42.88718        31.24974        -2.66478
O         38.95487        46.74972         1.91047
H         39.78920        47.14766         2.25248
O         41.70383        48.24586        -1.90676
H         41.45846        49.08214        -2.35069
O         31.34214        35.23687        -1.08709
H         31.24540        36.17332        -1.36776
O         41.54435        33.15058         1.77887
H         40.79747        33.63803         2.20831
O         32.04000        39.28546         3.26669
H         32.15237        40.16147         3.69329
O         37.40221        28.75715        -2.28223
H         38.06855        28.19759        -2.74691
O         44.82254        31.32832         1.54887
H         44.67604        32.17278         2.06283
O         36.77183        42.87383         1.46360
H         36.99857        42.05413         1.96387
O         44.96282        46.23446        -2.20329
H         45.53355        45.57428        -2.67032
O         41.47303        44.11670        -2.00818
H         40.65541        43.63553        -2.31594
O         35.47244        31.42737         2.05668
H         35.44040        30.47309         2.31109
O         44.08880        33.76486         2.03575
H         43.14323        33.91290         2.29129
O         49.94905        40.61277         2.82328
H         49.74873        39.73547         3.23182
