         200
 CSIRO Nanostructure Databank - Neutral Graphene Oxide Data Set
C        -11.19704         0.68025         0.16048
C        -10.01771         1.52450         0.42001
C         -8.64054         0.73503         0.47094
C         -7.45690         1.51053         0.13583
C         -6.25394         0.77214        -0.23279
C         -4.91098         1.54036        -0.17401
C         -3.68929         0.76560         0.11559
C         -2.49324         1.47608         0.39897
C         -1.23353         0.73576         0.77401
C          0.01444         1.50121         0.44460
C          1.22992         0.78702         0.29534
C          2.46169         1.50533         0.24027
C          3.69399         0.79735         0.21523
C          4.91952         1.52917         0.21983
C          6.19537         0.79964         0.55382
C          7.47179         1.47794         0.09400
C          8.67755         0.82894         0.12934
C          9.92315         1.54638        -0.10654
C         11.13794         0.77026        -0.20311
C         -9.93622         2.92563         0.05064
C         -8.72604         3.63124         0.09649
C         -7.46494         2.90733         0.15400
C         -6.21530         3.63617         0.18136
C         -4.99721         2.93827         0.23451
C         -3.76017         3.59332         0.61316
C         -2.47812         2.88655         0.47625
C         -1.26191         3.62416         0.48031
C         -0.01206         2.90915         0.41801
C          1.21756         3.63563         0.30870
C          2.45133         2.92939         0.26254
C          3.67680         3.64463         0.16262
C          4.89962         2.91507         0.11823
C          6.14018         3.65533        -0.19278
C          7.44601         2.91291        -0.25516
C          8.70457         3.68921        -0.18825
C          9.92308         2.93636        -0.18491
C         -8.67973         5.05020        -0.07856
C         -7.47747         5.77172        -0.07212
C         -6.22255         5.07848         0.13500
C         -5.01950         5.80205         0.12007
C         -3.75752         5.15583         0.50295
C         -2.48308         5.75842         0.15418
C         -1.26415         5.05627         0.28821
C         -0.01698         5.76659         0.18138
C          1.22365         5.05724         0.28649
C          2.46261         5.76116         0.29324
C          3.67962         5.07432         0.19386
C          4.94272         5.80218         0.11562
C          6.15318         5.11843        -0.04895
C          7.40161         5.81221        -0.17170
C          8.63992         5.07679        -0.22394
C         -7.44896         7.18855        -0.26730
C         -6.25029         7.89604        -0.35212
C         -4.99807         7.19624        -0.20223
C         -3.77616         7.87109        -0.38569
C         -2.52255         7.09941        -0.42509
C         -1.19910         7.86698        -0.51093
C          0.01550         7.18113        -0.04354
C          1.19314         7.91887         0.07446
C          2.44946         7.24192         0.56083
C          3.70992         7.94593         0.13409
C          4.92902         7.23552         0.06562
C          6.16525         7.93831        -0.13479
C          7.37714         7.22279        -0.21048
C         -6.19097         9.31410        -0.60626
C         -4.99691         9.97185        -0.71641
C         -3.73390         9.27973        -0.61583
C         -2.50787         9.97702        -0.65927
C         -1.24945         9.34067        -0.49622
C         -0.04081        10.02898        -0.33596
C          1.19634         9.34375        -0.12740
C          2.43031        10.03590        -0.11096
C          3.67676         9.35024        -0.05201
C          4.92259        10.04279        -0.23001
C          6.11665         9.36699        -0.25191
C        -11.13807        -0.67594         0.20156
C         -9.89365        -1.42989         0.28198
C         -8.65473        -0.71818         0.25154
C         -7.44096        -1.41202         0.05628
C         -6.20945        -0.68224        -0.08153
C         -4.96957        -1.33382        -0.12872
C         -3.73583        -0.64143         0.02725
C         -2.51210        -1.43538         0.43731
C         -1.21086        -0.69455         0.30353
C         -0.02238        -1.36170         0.11016
C          1.24103        -0.63468         0.14310
C          2.46334        -1.31617        -0.01457
C          3.68901        -0.62319         0.08238
C          4.95548        -1.34398         0.02374
C          6.15075        -0.66593         0.19565
C          7.42841        -1.38602         0.34207
C          8.73076        -0.63541         0.36586
C          9.97153        -1.39090         0.05220
C         11.16043        -0.59887        -0.15637
C         -9.88758        -2.82921         0.24425
C         -8.67071        -3.56910         0.16585
C         -7.43640        -2.84876         0.04194
C         -6.22246        -3.55830        -0.12350
C         -4.98538        -2.79549        -0.36473
C         -3.68336        -3.54950        -0.39149
C         -2.44310        -2.83294        -0.09264
C         -1.24084        -3.53252        -0.07971
C          0.00791        -2.81286        -0.04256
C          1.20565        -3.50797        -0.18330
C          2.46483        -2.74811        -0.49555
C          3.72907        -3.49976        -0.16652
C          4.92134        -2.79217        -0.08350
C          6.18545        -3.53723        -0.16262
C          7.48710        -2.81241        -0.07155
C          8.75759        -3.56421         0.13953
C          9.97254        -2.77120         0.03412
C         -8.63510        -4.98465         0.15648
C         -7.42166        -5.69609         0.04552
C         -6.18844        -4.96952        -0.10164
C         -4.93847        -5.69229        -0.16109
C         -3.70321        -5.00634        -0.22465
C         -2.46756        -5.69207        -0.17410
C         -1.23140        -4.96902        -0.18645
C          0.00234        -5.66388        -0.18432
C          1.23191        -4.93521        -0.20812
C          2.47987        -5.64428        -0.20882
C          3.71502        -4.93192        -0.17350
C          4.95459        -5.65932        -0.04082
C          6.17399        -4.98145         0.01473
C          7.42260        -5.67750         0.49307
C          8.71419        -4.92448         0.24160
C         -7.37955        -7.12527         0.07215
C         -6.17572        -7.82913         0.00808
C         -4.92885        -7.11690        -0.08409
C         -3.69499        -7.82492        -0.09674
C         -2.45926        -7.11970        -0.13626
C         -1.21806        -7.81912        -0.14633
C          0.01028        -7.09928        -0.17839
C          1.25057        -7.79720        -0.17811
C          2.48029        -7.07575        -0.17480
C          3.72214        -7.79218        -0.12567
C          4.94293        -7.09941        -0.03125
C          6.21045        -7.80865        -0.02381
C          7.40662        -7.13206         0.11164
C         -6.12842        -9.27174         0.04819
C         -4.94437        -9.95216         0.01123
C         -3.67804        -9.26331        -0.05506
C         -2.45888        -9.94562        -0.07434
C         -1.21327        -9.25470        -0.12241
C          0.02756        -9.93357        -0.14220
C          1.25021        -9.23621        -0.16704
C          2.50399        -9.92400        -0.18814
C          3.71038        -9.23624        -0.16900
C          4.98148        -9.92578        -0.20517
C          6.16379        -9.25197        -0.16062
O         -1.26651         0.66230         2.25180
H         -1.98807         0.02399         2.47876
O         -4.34524        -3.11300        -1.66102
O         -1.78964         7.24504        -1.69600
O         -3.81807         4.45875         1.78274
O         -9.33537         1.18208         1.66547
O         -2.71740        -1.63072         1.91923
H         -1.98622        -2.20754         2.23284
O          6.68857         3.19625        -1.49776
O         -5.57006         1.24610        -1.44008
O          6.96365        -3.05346        -1.41270
O          7.30313        -5.66855         1.98447
H          6.55539        -6.26075         2.21686
O          8.10435        -1.10189         1.62911
O          2.41758         7.36802         2.04068
H          2.43333         8.32753         2.24556
O          2.47130        -2.65253        -1.96946
H          3.32441        -2.24637        -2.23475
O          6.25936         0.85653         2.02680
H          6.96195         0.21143         2.29708
H         12.11596        -1.12832        -0.28855
H         12.07998         1.31623        -0.36219
H         10.88055         3.47274        -0.27152
H          9.57734         5.65374        -0.25544
H          8.32085         7.77585        -0.33197
H          7.05883         9.91822        -0.38767
H          4.90487        11.13566        -0.35333
H          2.43198        11.12601        -0.26053
H         -0.03428        11.12853        -0.38383
H         -2.53208        11.07386        -0.74989
H         -4.98354        11.05650        -0.89983
H         -7.13567         9.86818        -0.70985
H         -8.40259         7.72414        -0.39161
H         -9.62795         5.59461        -0.20506
H        -10.84994         3.43762        -0.28773
H        -12.15554         1.18016        -0.04717
H        -12.06298        -1.25583         0.05961
H        -10.84287        -3.37476         0.27029
H         -9.57815        -5.54468         0.24614
H         -8.32555        -7.68082         0.16099
H         -7.07840        -9.82344         0.10843
H         -4.94042       -11.05199         0.04067
H         -2.45529       -11.04597        -0.04679
H          0.03785       -11.03401        -0.13209
H          2.50563       -11.02427        -0.21525
H          4.97449       -11.02372        -0.27591
H          7.11590        -9.80213        -0.19172
H          8.35188        -7.69632         0.12572
H          9.65273        -5.49282         0.33946
H         10.92765        -3.30300        -0.10000
