         490
 CSIRO Nanostructure Databank - Neutral Graphene Oxide Data Set
C         38.18916        50.14406         2.15095
C         37.39080        50.68028         3.16545
C         39.33799        50.91004         4.58160
C         37.96545        51.06540         4.37871
C         40.73471        47.92992         1.64503
C         40.45950        49.36259         1.24455
C         39.57190        49.99431         2.31980
C         40.42159        52.37463         0.38621
C         40.13384        50.37229         3.55852
C         40.36685        53.79113         0.38400
C         43.19065        48.15615         1.46094
C         41.93593        47.35205         1.62162
C         42.94630        49.61691         1.09988
C         41.70171        50.21769         1.00705
C         42.77372        52.48582         0.97454
C         41.61806        51.67660         0.77023
C         42.72798        53.91463         0.93444
C         41.48041        54.54471         0.66668
C         45.14640        45.83362        -0.94487
C         44.09771        46.37265        -0.13273
C         45.53245        48.30458         0.48607
C         44.22964        47.55594         0.54150
C         45.33970        49.81344         0.52467
C         44.14519        50.39339         0.94782
C         45.27044        52.64634         0.92939
C         44.08239        51.83340         1.37740
C         45.25431        54.10184         1.29746
C         43.89457        54.73532         1.12202
C         45.02335        56.90128         1.26989
C         43.85899        56.13365         1.27634
C         47.54948        44.69522        -2.45602
C         47.37894        46.07697        -2.10484
C         46.31044        46.55515        -1.21771
C         47.49856        48.70521        -0.95571
C         46.44063        47.86383        -0.63395
C         47.58650        50.05570        -0.44705
C         46.44099        50.63430         0.18177
C         47.46005        52.88261        -0.29494
C         46.35139        52.06909         0.33338
C         47.50959        54.33467         0.12234
C         46.35609        54.94031         0.69387
C         47.42023        57.16284         0.56342
C         46.28244        56.34477         0.87434
C         47.50454        58.52084         0.90439
C         50.05249        44.63706        -2.80916
C         48.74650        44.06104        -2.77293
C         50.23589        46.00213        -3.03234
C         48.31937        47.02280        -2.53628
C         49.56786        49.13675        -2.18636
C         48.46395        48.30427        -1.94285
C         49.84464        50.28065        -1.39993
C         48.75684        50.80456        -0.65161
C         49.93564        52.98389        -0.69700
C         48.81574        52.19730        -0.08375
C         49.77915        54.45157        -0.95264
C         48.61176        55.08647        -0.24302
C         49.85860        57.29958        -0.18843
C         48.52171        56.59027        -0.29501
C         49.86966        58.69715         0.18041
C         48.65486        59.26811         0.67845
C         52.37892        41.75186        -1.90209
C         51.22829        42.42647        -2.20156
C         52.50747        44.56510        -2.15100
C         51.33070        43.81679        -2.75875
C         52.54504        45.96763        -2.14810
C         51.41755        46.71312        -2.65067
C         52.48933        48.83751        -1.92906
C         51.47505        48.11923        -2.60126
C         52.37416        50.24400        -1.59450
C         51.13854        50.92600        -1.37959
C         52.34796        53.09626        -1.08126
C         51.12686        52.33835        -1.04228
C         52.30043        54.52012        -0.88096
C         51.07062        55.20507        -0.77244
C         52.29625        57.36402        -0.67809
C         51.02914        56.61469        -0.53881
C         52.29896        58.83515        -0.36335
C         51.06765        59.45462         0.15066
C         52.33159        61.55376         0.42559
C         51.19037        60.82415         0.58170
C         54.90540        40.34719        -1.10857
C         54.91828        41.62103        -1.91092
C         53.64364        42.41069        -1.83531
C         54.89763        44.53086        -1.49977
C         53.68985        43.83235        -1.82628
C         54.89706        45.95631        -1.37461
C         53.71037        46.68103        -1.71867
C         54.86410        48.79591        -1.22059
C         53.68797        48.10317        -1.60586
C         54.82913        50.22779        -1.15516
C         53.59602        50.94381        -1.29901
C         54.80958        53.04565        -0.91865
C         53.57803        52.36373        -1.10901
C         54.79301        54.48710        -0.58868
C         53.54117        55.25426        -0.72370
C         54.82120        57.39942        -0.60496
C         53.57543        56.62912        -0.61553
C         54.82126        58.77092        -0.45326
C         53.60641        59.47136         0.08675
C         54.90132        61.61906         0.15094
C         53.57364        60.97240        -0.21545
C         54.96910        62.93309         0.66904
C         57.34987        40.22039        -1.20334
C         56.07789        39.67874        -0.86440
C         57.39607        41.66059        -1.49599
C         56.13661        42.41603        -1.52254
C         57.33679        44.47677        -0.90685
C         56.12813        43.79015        -1.34461
C         57.19002        45.87108        -0.31923
C         56.05378        46.65466        -0.93678
C         57.27503        48.78522        -0.60316
C         56.07227        48.07112        -0.91575
C         57.28516        50.22205        -0.65054
C         56.04077        50.93348        -0.93452
C         57.34083        53.04222        -1.07210
C         56.01961        52.34566        -0.91119
C         57.33351        54.52531        -0.84053
C         56.08609        55.24754        -0.58282
C         57.30509        57.38156        -0.81387
C         56.09022        56.70770        -0.75094
C         57.34054        58.82141        -0.72740
C         56.03947        59.58604        -0.82007
C         57.35342        61.58680         0.00833
C         56.09028        60.94133        -0.14750
C         57.39563        62.94464         0.44069
C         56.18165        63.57951         0.80650
C         59.63858        37.33720        -0.57754
C         58.51660        38.06860        -0.88065
C         59.77614        40.15789        -0.64057
C         58.56122        39.49680        -0.93540
C         59.99104        41.63252        -0.94445
C         58.69920        42.41566        -1.22482
C         59.60728        44.44970         0.03305
C         58.53155        43.81242        -0.77487
C         59.65588        45.93256         0.02697
C         58.50296        46.62762        -0.25007
C         59.65686        48.77314         0.06157
C         58.49718        48.08707        -0.26562
C         59.66557        50.26466         0.21948
C         58.44279        50.92781        -0.33597
C         59.76469        53.05899        -0.64475
C         58.44249        52.42656        -0.22727
C         59.76858        54.40970        -0.90824
C         58.53141        55.18025        -0.81012
C         59.76912        57.30070        -0.69347
C         58.56959        56.64206        -0.75847
C         59.82422        58.77852        -0.99351
C         58.54385        59.49417        -0.61652
C         59.82343        61.57311        -0.18625
C         58.58240        60.89705        -0.28670
C         59.83849        62.96590         0.11307
C         58.65250        63.64884         0.42869
C         59.87180        65.75705         0.79350
C         58.69978        65.06351         0.72370
C         62.15454        35.83594        -0.22179
C         62.00649        37.18319         0.11543
C         60.84728        37.97284        -0.18697
C         62.04880        40.11062         0.31766
C         60.89466        39.41547        -0.15891
C         62.08423        41.54844         0.39467
C         60.96308        42.28326         0.00662
C         62.03690        44.43912         0.90550
C         60.81442        43.67720         0.45312
C         62.06184        45.89764         0.63118
C         60.91379        46.58722         0.34155
C         62.18200        48.74027         0.16073
C         60.88441        48.07807         0.59719
C         62.18189        50.13913        -0.23500
C         60.95754        50.90880        -0.26150
C         62.22834        52.90297        -1.02342
C         60.95853        52.24557        -0.64808
C         62.27157        54.40281        -1.26392
C         60.98359        55.20925        -1.32379
C         62.30694        57.27904        -0.73772
C         61.03718        56.49934        -0.48559
C         62.31551        58.70874        -0.58806
C         61.09084        59.45760        -0.53540
C         62.33315        61.53502        -0.13296
C         61.08291        60.83758        -0.32041
C         62.36331        62.93997         0.07529
C         61.10878        63.75676        -0.11488
C         62.33879        65.77795         0.73927
C         61.13953        65.11906         0.56005
C         62.46595        67.17797         1.11764
C         64.40266        35.73329         0.75652
C         63.29867        35.11391         0.17365
C         64.40304        37.15783         0.96435
C         63.09581        37.82120         0.86608
C         64.38971        39.99536         1.28165
C         63.10732        39.33146         0.97650
C         64.18247        41.37408         1.58910
C         63.19627        42.19155         1.07839
C         64.62097        44.43458         1.12153
C         63.29747        43.68906         1.24763
C         64.60775        45.81794         0.85594
C         63.32256        46.65049         1.02861
C         64.62891        48.57347        -0.06840
C         63.34104        48.00975         0.33035
C         64.67081        50.07047        -0.45337
C         63.40997        50.81912        -0.42693
C         64.70045        52.93747        -0.66214
C         63.47854        52.22068        -0.66534
C         64.73509        54.38428        -0.85578
C         63.53495        55.12007        -1.02336
C         64.74313        57.30232        -1.10434
C         63.48941        56.55541        -0.93276
C         64.78881        58.70743        -0.69180
C         63.55798        59.39783        -0.45694
C         64.79317        61.50034        -0.00393
C         63.55987        60.81194        -0.18611
C         64.80711        62.88267         0.22443
C         63.58076        63.59474         0.27341
C         64.88131        65.80965         0.46697
C         63.60967        65.03573         0.61848
C         64.82603        67.30956         0.26435
C         63.60700        67.88586         0.94906
C         66.86990        32.88967         1.40732
C         65.68092        33.50666         1.19233
C         66.83568        35.73841         1.47323
C         65.54898        34.96451         1.30573
C         66.81577        37.09399         0.76977
C         65.58951        37.89703         1.12344
C         66.95614        40.04434         1.20222
C         65.63694        39.32908         1.28571
C         67.06885        41.51754         1.18014
C         66.05632        42.39112         1.58111
C         67.11495        44.42290         0.86190
C         65.89365        43.75092         1.15840
C         67.10398        45.82124         0.76415
C         65.85641        46.53804         0.70460
C         67.09762        48.71705         0.33570
C         65.86182        47.91776         0.38024
C         67.13824        50.11850        -0.11897
C         65.92029        50.83618        -0.30448
C         67.16251        52.97333         0.03228
C         65.90760        52.23219        -0.36413
C         67.20178        54.39983        -0.46636
C         66.00008        55.05952        -0.79220
C         67.29639        57.23852        -0.75460
C         66.07029        56.49901        -1.07431
C         67.26318        58.63830        -0.66008
C         66.03596        59.34576        -0.55676
C         67.36798        61.44431         0.15097
C         66.05016        60.72166        -0.00421
C         67.38524        62.93079         0.30161
C         66.07820        63.64982         0.35510
C         67.37953        65.81097         0.12554
C         66.06717        65.08721        -0.13900
C         67.35344        67.21286         0.43995
C         66.17093        67.93340         0.61664
C         67.40873        69.90822         1.40223
C         66.23049        69.29732         1.04934
C         69.36746        31.49737         2.11378
C         69.34918        32.89873         1.97674
C         68.10029        33.61479         1.69165
C         69.28960        35.81574         2.00829
C         68.09811        34.99130         1.60824
C         69.38444        37.14704         1.27985
C         68.12677        37.84905         0.84405
C         69.42702        39.95512         0.47195
C         68.10486        39.32720         0.88780
C         69.48275        41.44149         0.70297
C         68.31952        42.17807         0.84315
C         69.53644        44.27085         0.43235
C         68.35093        43.64103         0.76810
C         69.62336        45.74175         0.34144
C         68.39175        46.52491         0.63722
C         69.62797        48.61384        -0.17059
C         68.41798        47.99355         0.40208
C         69.62268        50.02696        -0.32065
C         68.38515        50.76967        -0.22470
C         69.64027        52.86945        -0.36785
C         68.42848        52.20243        -0.28169
C         69.68316        54.34033        -0.02083
C         68.43351        55.08582        -0.43208
C         69.76064        57.17653        -0.38516
C         68.50553        56.49727        -0.53908
C         69.75619        58.66365        -0.11767
C         68.58203        59.36577        -0.78369
C         69.77271        61.51443        -0.44909
C         68.58989        60.81204        -0.35362
C         69.76702        62.96904        -0.37836
C         68.60513        63.66518        -0.11567
C         69.86650        65.78765         0.14363
C         68.58123        65.11491        -0.01769
C         69.89929        67.13101         0.58531
C         68.66516        67.98114         0.42055
C         69.87241        69.83984         1.60210
C         68.67143        69.25101         1.24479
C         69.96873        71.21226         2.05250
C         71.76010        31.50759         2.46365
C         70.55156        30.80612         2.35557
C         71.77041        32.89020         2.34831
C         70.57680        33.62119         2.12041
C         71.75359        35.83541         2.13530
C         70.59594        35.06209         2.02946
C         71.75593        37.22982         1.96876
C         70.62032        37.93989         1.51066
C         71.92226        39.92137         0.83325
C         70.66364        39.25786         1.03648
C         72.00127        41.25044         0.55712
C         70.80097        42.08490         0.73504
C         72.04481        44.33116         0.10549
C         70.83634        43.59967         0.55424
C         72.00729        45.59678        -0.34246
C         70.70062        46.33289        -0.55118
C         71.93272        48.53800        -0.89136
C         70.77395        47.85365        -0.48035
C         71.97761        49.92763        -0.91932
C         70.83361        50.70235        -0.63567
C         72.05637        52.87331        -0.75812
C         70.86668        52.15548        -0.59940
C         72.08828        54.28323        -0.70693
C         70.96065        55.03768        -0.42937
C         72.20915        57.23035        -0.41841
C         70.97320        56.48019        -0.38487
C         72.24272        58.59861        -0.49099
C         71.04846        59.39130        -0.46994
C         72.24440        61.56545        -0.74025
C         71.03196        60.77850        -0.60137
C         72.24954        62.91624        -0.76524
C         70.99575        63.74821        -0.79272
C         72.28002        65.66534         0.32688
C         71.07229        65.07105        -0.05001
C         72.29394        66.94323         0.88963
C         71.12070        67.70823         0.96747
C         72.31553        69.94660         1.08646
C         71.18306        69.08046         1.59693
C         72.30873        71.27188         1.35180
C         71.14747        71.89381         1.95252
O         66.77119        60.74391         1.29149
O         66.83451        63.42311         1.57343
O         62.62205        38.48348         2.08770
O         65.94836        35.54783         2.60923
O         55.46157        54.79438         0.69715
O         64.71247        49.01822        -1.47755
O         64.51194        65.34152         1.77456
O         69.05174        37.21496        -0.14840
O         52.26529        58.39202        -1.74974
O         65.09724        41.93160         2.47784
O         65.45831        56.95291        -2.32712
O         62.30513        53.46688        -2.39689
O         50.45104        48.84592        -3.23662
O         58.27709        42.13578        -2.59295
O         62.42138        44.19439         2.31882
O         69.42838        46.27814         1.68264
O         70.98898        42.99632         1.88640
O         67.89791        48.65410         1.59645
O         49.16421        46.71079        -3.61516
O         59.66075        43.85961         1.39277
O         61.09493        64.07156        -1.55851
H         60.24418        64.52077        -1.74972
O         57.72543        52.81064        -2.46315
H         57.04335        53.20896        -3.04267
O         53.43563        61.11015        -1.66345
H         53.30061        62.05877        -1.86833
O         55.06584        41.26732        -3.34567
H         56.01640        41.08643        -3.50915
O         56.79081        45.66504         1.08069
H         57.52816        45.19676         1.53156
O         49.03662        52.13145         1.35730
H         49.90203        51.69794         1.51053
O         53.67285        59.35621         1.53771
H         53.90182        58.43068         1.76614
O         43.77096        48.19830         2.81564
H         43.15839        48.73474         3.36636
O         51.70004        43.62731        -4.18268
H         52.51858        43.08432        -4.19822
O         69.58401        58.80108         1.32033
H         70.30357        58.30408         1.76195
O         65.87475        65.02958        -1.57712
H         65.54441        65.91527        -1.86246
O         59.63300        50.54237         1.69900
H         58.83790        50.08266         2.04991
O         39.73642        49.22149        -0.01767
H         39.10382        48.47807         0.06766
O         60.79012        55.61155        -2.69772
H         61.07194        54.85139        -3.25545
O         55.86442        59.86154        -2.25991
H         54.96498        60.26843        -2.35583
O         67.11227        53.08147         1.49522
H         67.93609        53.55926         1.76901
O         68.87326        59.36021        -2.21868
H         68.03871        59.52685        -2.70505
O         58.19304        52.77294         1.15622
H         58.86231        52.29129         1.69849
O         59.89629        58.87054        -2.46314
H         59.10960        58.41040        -2.82693
O         64.66038        67.51227        -1.18293
H         64.78460        68.46745        -1.36799
O         70.24716        46.02517        -1.90909
H         70.91572        46.36985        -2.53768
O         69.66431        54.37196         1.46819
H         70.45518        53.87881         1.77652
O         44.06792        51.80878         2.86962
H         43.25234        51.31819         3.12180
O         69.50945        39.77584        -0.98787
H         69.48714        38.80079        -1.14255
O         63.24975        46.90376         2.45791
H         62.92580        46.07003         2.87577
O         70.79981        64.12224        -2.20396
H         70.73421        63.28966        -2.71815
O         60.73069        41.62542        -2.22131
H         60.05157        41.52601        -2.93021
O         60.81433        48.18183         2.05393
H         60.80408        49.14284         2.27622
O         47.18264        52.88373        -1.72153
H         47.85783        53.45727        -2.16146
O         48.06637        56.86342        -1.68331
H         48.58298        56.25946        -2.27273
O         66.60981        36.76730        -0.64594
H         67.50274        36.62294        -1.03782
O         61.07933        56.06298         0.90456
H         61.05651        56.85679         1.47863
O         46.26748        47.99282         1.72166
H         45.62143        48.10073         2.46062
O         39.28550        51.79875        -0.01656
H         39.37997        50.82185        -0.15653
O         68.75452        68.47403        -0.97623
H         68.84547        67.68562        -1.55404
O         71.50092        68.82826         3.01217
H         71.54295        69.70273         3.45515
O         49.43561        54.56594        -2.43348
H         50.21685        54.23963        -2.93295
O         45.50228        54.15071         2.75304
H         45.02398        53.37845         3.14354
O         69.02178        36.22507         3.39642
H         68.79783        35.42090         3.91110
O         41.48522        50.20511         3.77204
H         41.69302        50.49255         4.68461
H         37.72491        49.84335         1.20014
H         36.31094        50.79610         3.00545
H         39.80010        51.20077         5.53573
H         37.34016        51.48691         5.17711
H         39.83719        47.32650         1.86182
H         39.41576        54.27070         0.11911
H         42.04294        46.28907         1.88677
H         41.41116        55.63947         0.62821
H         44.98849        44.84718        -1.40238
H         43.16343        45.79516        -0.05133
H         44.93084        57.98817         1.40352
H         42.89816        56.65972         1.37753
H         46.68514        44.03114        -2.29569
H         46.65727        59.01278         1.40416
H         48.68892        42.96358        -2.84772
H         48.64402        60.32802         0.96691
H         52.33362        40.67125        -1.69970
H         50.27426        41.88281        -2.24734
H         52.31737        62.61408         0.71742
H         50.31395        61.32422         1.02031
H         53.95929        39.93273        -0.73368
H         54.05026        63.46700         0.94680
H         56.03755        38.70568        -0.35316
H         56.18488        64.60697         1.19243
H         59.58318        36.24025        -0.58871
H         57.58457        37.55027        -1.14250
H         59.84730        66.81578         1.08726
H         57.76488        65.59849         0.93425
H         61.35983        35.30525        -0.76377
H         61.58837        67.69163         1.53837
H         63.32206        34.03125        -0.01458
H         63.60744        68.94771         1.23579
H         66.91148        31.79603         1.31459
H         64.80677        32.91033         0.89237
H         67.36785        70.91386         1.84290
H         65.29499        69.85897         1.17866
H         68.43532        30.92273         2.03429
H         69.06696        71.74716         2.38388
H         72.69754        30.96490         2.64786
H         70.53670        29.71246         2.45803
H         72.72550        33.42249         2.45065
H         72.72124        35.35156         2.33103
H         72.70502        37.76399         2.11202
H         72.84743        39.32766         0.86957
H         72.97619        41.73313         0.40546
H         73.01568        43.82795         0.22746
H         72.94903        46.08639        -0.63294
H         72.83889        47.97779        -1.16081
H         72.92203        50.41541        -1.19521
H         72.99708        52.34519        -0.96169
H         73.04355        54.78107        -0.92500
H         73.16094        56.68156        -0.42646
H         73.22077        59.09217        -0.58605
H         73.20691        61.03669        -0.80196
H         73.20935        63.43631        -0.90200
H         73.22939        65.12527         0.20887
H         73.24502        67.36865         1.23899
H         73.19368        69.47219         0.62436
H         73.16550        71.90652         1.08216
H         71.20051        72.95368         2.23846
