         424
 CSIRO Nanostructure Databank - Neutral Graphene Oxide Data Set
C          1.30218         1.97107         0.01030
C          1.27196         3.40610         0.05455
C          2.48316         1.28942        -0.08333
C          2.41065         4.15750        -0.09078
C          1.20599         6.34208        -0.07132
C          1.19619         7.72299         0.04212
C          2.41148         5.61294        -0.00708
C          2.38508         8.43911         0.30651
C          1.21134        10.63437         0.32116
C          1.21089        12.05827         0.29150
C          2.37579         9.89625         0.46318
C          2.34703        12.79619         0.51762
C          1.18788        15.00386         0.35103
C          1.21856        16.39945         0.25136
C          2.37048        14.24765         0.41465
C          2.43239        17.08159         0.13530
C          2.48994        18.53394         0.09207
C          3.73633         1.99508        -0.17355
C          3.70192         3.47685        -0.47975
C          4.93304         1.33430        -0.09819
C          4.94103         4.20997        -0.02482
C          3.63008         6.32364         0.18104
C          3.60100         7.72162         0.39015
C          4.90614         5.60529         0.18001
C          4.82923         8.42150         0.92260
C          3.62807        10.59968         0.65634
C          3.59169        12.08034         0.98068
C          4.83077         9.92285         0.71738
C          4.87571        12.79452         0.63753
C          3.62684        14.92781         0.35551
C          3.65480        16.33676         0.14619
C          4.86611        14.20289         0.44942
C          4.89508        17.02027        -0.00623
C          3.64448        19.19170        -0.13738
C          4.89950        18.44575        -0.50271
C          6.19780         2.03825        -0.04492
C          6.16520         3.50663        -0.00025
C          7.37607         1.36030         0.10430
C          7.37747         4.22322         0.07150
C          6.12769         6.32701         0.30690
C          6.12499         7.75805         0.54068
C          7.35181         5.62074         0.16253
C          7.29066         8.49465         0.60477
C          6.09057        10.63831         0.77682
C          6.08900        12.08436         0.68783
C          7.30432         9.93564         0.77805
C          7.33519        12.79216         0.63707
C          6.09813        14.91434         0.38577
C          6.10401        16.33455         0.17002
C          7.32968        14.21547         0.52561
C          7.35587        17.05565         0.21646
C          6.17046        19.17799        -0.17594
C          7.34839        18.51580         0.06593
C          8.66863         2.07364         0.40172
C          8.67565         3.48641        -0.18636
C          9.91708         1.31717        -0.11099
C          9.91426         4.22961         0.26499
C          8.62712         6.35619         0.15134
C          8.59274         7.83154         0.37621
C          9.88455         5.61436         0.40188
C          9.78954         8.47669         1.03317
C          8.57294        10.65214         0.77985
C          8.56941        12.08726         0.72633
C          9.80035         9.96501         0.80332
C          9.80946        12.80889         0.76022
C          8.55876        14.94439         0.56800
C          8.54000        16.37928         0.46306
C          9.79088        14.25366         0.69731
C          9.78678        17.14972         0.82942
C          8.60603        19.22454         0.11081
C          9.80876        18.57903         0.34454
C         11.18798         2.05969         0.26488
C         11.13468         3.51300         0.42756
C         12.35389         1.37960         0.41305
C         12.32797         4.23222         0.65794
C         11.09155         6.35794         0.58655
C         11.07505         7.77372         0.69484
C         12.33241         5.64916         0.61340
C         12.27961         8.51050         0.62011
C         11.04885        10.66114         0.77736
C         11.02798        12.08802         0.80631
C         12.28196         9.93889         0.70991
C         12.30839        12.81300         0.84069
C         11.01051        15.00571         0.60147
C         11.04837        16.39009         0.52817
C         12.30165        14.29087         0.69092
C         12.29439        17.10993         0.40896
C         11.05970        19.25014         0.29574
C         12.28794        18.56517         0.38018
C         13.60586         1.99600         0.98774
C         13.59777         3.52080         0.91103
C         14.88576         1.38386         0.47620
C         14.87843         4.27854         0.58291
C         13.55232         6.39225         0.43191
C         13.49003         7.79697         0.34995
C         14.78868         5.69660         0.22022
C         14.64967         8.55337        -0.14350
C         13.61591        10.63506         0.91755
C         13.58017        12.10325         0.58679
C         14.77250         9.96680         0.20951
C         14.74593        12.80231         0.37732
C         13.47707        14.95083         0.01745
C         13.50740        16.43132         0.27826
C         14.77490        14.23771         0.26778
C         14.76384        17.11200         0.30077
C         13.52914        19.24785         0.32205
C         14.76254        18.56820         0.31765
C         16.06992         2.09182         0.24663
C         16.09107         3.53656         0.22048
C         17.29343         1.41037        -0.02652
C         17.22948         4.24108        -0.21675
C         15.95337         6.34515        -0.23931
C         15.90852         7.79390        -0.52206
C         17.16479         5.65665        -0.41467
C         17.17803         8.54108        -0.55155
C         15.95549        10.63983        -0.01967
C         16.06396        12.06799         0.46703
C         17.13700         9.94738        -0.44628
C         17.21404        12.86993        -0.08595
C         15.97235        14.95395         0.27107
C         15.96505        16.38976         0.30129
C         17.23519        14.23613         0.09190
C         17.25827        17.10680         0.58891
C         15.99831        19.25394         0.21669
C         17.23361        18.57540         0.22332
C         18.48690         2.10537        -0.31051
C         18.46569         3.53864        -0.46132
C         19.71507         1.41122        -0.45344
C         19.65529         4.24803        -0.76853
C         18.32227         6.37528        -1.06569
C         18.38639         7.84617        -0.73699
C         19.64650         5.67385        -0.90889
C         19.63102         8.55422        -0.85132
C         18.36447        10.67631        -0.77525
C         18.39182        12.18472        -0.64175
C         19.62966         9.95313        -0.85772
C         19.69930        12.86009        -0.53137
C         18.47746        14.97822        -0.05780
C         18.49117        16.38144         0.09719
C         19.69668        14.26882        -0.26220
C         19.70234        17.09659        -0.00089
C         18.45077        19.24249         0.06918
C         19.70169        18.54772         0.03174
C         20.91866         2.09948        -0.70419
C         20.89947         3.52871        -0.86326
C         22.15559         1.40654        -0.81201
C         22.10187         4.21174        -1.15531
C         20.83418         6.40563        -1.10416
C         20.86477         7.82074        -1.07527
C         22.06132         5.66458        -1.57230
C         22.11822         8.54514        -1.14621
C         20.85431        10.73401        -1.27130
C         20.88078        12.15532        -0.73709
C         22.13533         9.96532        -1.05920
C         22.14012        12.81689        -0.55710
C         20.94020        14.96227        -0.23139
C         20.93974        16.39582        -0.13227
C         22.15492        14.23650        -0.30806
C         22.16381        17.10626        -0.13513
C         20.91693        19.23387        -0.03799
C         22.16364        18.54316        -0.08485
C         23.34587         2.08369        -1.08983
C         23.30085         3.50184        -1.29789
C         24.61280         1.39091        -1.05764
C         24.52178         4.23622        -1.65802
C         23.36087         6.40189        -1.34634
C         23.35252         7.83563        -1.21812
C         24.53493         5.70157        -1.48570
C         24.60261         8.55146        -1.16982
C         23.34824        10.66830        -0.87133
C         23.34107        12.07868        -0.61919
C         24.60209         9.95742        -0.92550
C         24.60385        12.73003        -0.13136
C         23.40279        14.93892        -0.19520
C         23.40554        16.39162        -0.11430
C         24.60858        14.23196        -0.22913
C         24.60619        17.09310         0.00653
C         23.39246        19.22792        -0.09449
C         24.62316        18.52546        -0.05156
C         25.82436         2.03421        -1.19463
C         25.86075         3.46757        -1.57216
C         27.06127         1.38691        -0.84324
C         27.06472         4.21130        -1.29498
C         25.84345         6.40833        -1.73754
C         25.83240         7.86517        -1.34440
C         27.03577         5.69546        -1.06811
C         27.06901         8.55179        -1.25046
C         25.85040        10.66429        -0.87948
C         25.87328        12.08594        -0.61839
C         27.05858         9.97130        -1.06479
C         27.07540        12.79641        -0.50426
C         25.86142        14.90524        -0.08989
C         25.87378        16.35462         0.34268
C         27.05477        14.20415        -0.16538
C         27.12840        17.08537        -0.07102
C         25.86257        19.21146        -0.11594
C         27.10272        18.52559        -0.18041
C         28.26990         2.04909        -0.77223
C         28.37648         3.47966        -1.25724
C         29.46541         1.38519        -0.34076
C         29.46202         4.28805        -0.58383
C         28.37671         6.35168        -1.47360
C         28.32630         7.84672        -1.23905
C         29.51432         5.65194        -0.74982
C         29.53383         8.53726        -0.98544
C         28.33384        10.74362        -1.28608
C         28.33877        12.13292        -0.69769
C         29.57101         9.95635        -0.95095
C         29.55095        12.79234        -0.50293
C         28.33217        14.91655         0.19687
C         28.32011        16.39211        -0.13264
C         29.59199        14.21422        -0.23756
C         29.56685        17.08498        -0.29644
C         28.32157        19.21530        -0.32235
C         29.55984        18.52667        -0.36423
C         30.61892         2.07782        -0.00651
C         30.56292         3.55797         0.06204
C         31.83941         1.42848         0.37223
C         31.86194         4.31463         0.28054
C         30.72182         6.40521        -0.47795
C         30.75373         7.80527        -0.71138
C         31.91451         5.72569        -0.12281
C         31.98428         8.50563        -0.59432
C         30.79053        10.64829        -0.79148
C         30.80546        12.07507        -0.65147
C         32.02322         9.92709        -0.68923
C         32.03493        12.74695        -0.58348
C         30.77393        14.92544        -0.30721
C         30.78650        16.37206        -0.33605
C         32.09882        14.20757        -0.20793
C         32.02846        17.08501        -0.44469
C         30.78734        19.21974        -0.40473
C         32.02221        18.52975        -0.41532
C         33.04619         2.10519         0.52051
C         33.11555         3.54269         0.32585
C         34.27442         1.43092         0.88605
C         34.32103         4.19567         0.20510
C         33.15623         6.38832        -0.11130
C         33.19480         7.79652        -0.32928
C         34.37920         5.63670         0.10325
C         34.41270         8.51354        -0.18151
C         33.26484        10.62417        -0.66474
C         33.25159        12.04302        -0.71862
C         34.49241         9.89910        -0.42522
C         34.51707        12.77980        -0.88947
C         33.22876        14.93789        -0.93315
C         33.25722        16.40089        -0.57765
C         34.54673        14.23494        -0.71845
C         34.48835        17.08377        -0.50311
C         33.25352        19.21914        -0.41672
C         34.48312        18.52611        -0.40253
C         35.49519         2.05762         0.81115
C         35.59850         3.40424         0.12069
C         36.71797         1.42295         1.24672
C         36.81222         4.18951         0.54105
C         35.59050         6.30289         0.24558
C         35.58779         7.77452         0.29444
C         36.82747         5.57921         0.49626
C         36.89681         8.51308         0.36344
C         35.75730        10.58938        -0.33880
C         35.83151        12.01510        -0.69508
C         36.94512         9.93911        -0.00371
C         37.02317        12.78371        -0.30899
C         35.73808        14.91510        -0.53341
C         35.73133        16.36756        -0.45283
C         36.99103        14.19799        -0.32156
C         36.94093        17.06551        -0.25991
C         35.71412        19.21145        -0.31074
C         36.93387        18.51196        -0.22077
C         37.93849         2.04409         1.22006
C         38.10012         3.42320         0.62554
C         39.16436         1.38073         1.63322
C         39.22082         4.22545         1.21736
C         38.07814         6.28462         0.60187
C         38.14181         7.70993         0.26764
C         39.27437         5.60547         0.97260
C         39.44333         8.46752         0.41955
C         38.19345        10.64132         0.13585
C         38.19961        12.07479         0.06602
C         39.38917         9.94823         0.48601
C         39.39882        12.79658         0.35385
C         38.18567        14.92638        -0.04558
C         38.17434        16.35854        -0.06035
C         39.39924        14.22571         0.26350
C         39.38013        17.08167         0.15406
C         38.15378        19.20674        -0.06713
C         39.36838        18.52004         0.11675
C         40.29136         2.06755         1.92139
C         40.28020         3.56741         2.05484
C         41.61253         4.24365         1.86664
C         40.52055         6.34447         1.18122
C         40.59515         7.72910         0.97794
C         41.68885         5.55475         1.53983
C         41.73794         8.52667         1.31442
C         40.56848        10.64965         0.80792
C         40.58443        12.09182         0.72736
C         41.72954         9.89533         1.20554
C         41.75691        12.84576         0.98110
C         40.60251        14.94846         0.51034
C         40.60936        16.39617         0.41275
C         41.76529        14.22359         0.86571
C         41.78565        17.14986         0.58004
C         40.58599        19.23400         0.29211
C         41.77046        18.55117         0.51082
O         38.97432         7.98496        -0.90575
O         14.96384         8.21637        -1.55217
O         14.39620         4.07806         1.99811
O         25.19059         3.77746        -2.88594
O         18.15029        11.60014        -1.98465
O         30.92936         4.06501         1.39178
O         35.31502        12.31279        -2.03621
O          8.78398         7.32455        -0.97528
O         12.49456        13.73169         2.02533
O         36.14199         8.27164         1.59393
O         17.38146        17.08062         2.06162
H         18.17333        17.61162         2.29379
O          8.76856         2.20914         1.84389
H          8.53690         1.34592         2.24459
O         25.92842        16.31592         1.81534
H         26.75366        15.81785         2.04685
O         13.57471         1.64412         2.41451
H         14.10899         2.33615         2.87095
O          9.94045        -0.01100         0.42395
H         10.22581         0.04618         1.35931
O         26.87021         5.89214         0.36802
H         27.66859         5.53886         0.81799
O         28.77802         3.38225        -2.67239
H         28.84354         4.31769        -3.00692
O         18.03822         6.31144        -2.52109
H         18.65045         6.93571        -2.96698
O         28.60770         6.12465        -2.89677
H         27.75726         6.36417        -3.35791
O         13.87730        10.53496         2.36328
H         13.47567        11.31928         2.79513
O          9.57805         8.27714         2.47390
H         10.32817         8.69498         2.94759
O         24.60617        12.46302         1.34001
H         25.33608        12.99670         1.72403
O          4.88215        18.35202        -1.98205
H          5.68423        17.85334        -2.24766
O         28.39062        10.95852        -2.75591
H         28.40698        10.07210        -3.17698
O         28.37169        14.87055         1.69087
H         29.17607        15.36088         1.96900
O         35.79784         3.10332        -1.30885
H         36.74557         2.83304        -1.40741
O         13.19926        14.79578        -1.42330
H         13.93770        15.21289        -1.91568
O          8.78240         3.33242        -1.63136
H          8.68139         4.21917        -2.03817
O         32.45650        14.24138         1.21117
H         31.78216        13.72839         1.70445
O         39.89541         3.81616         3.46522
H         39.88703         4.78886         3.59395
O         26.02251         6.35658        -3.19345
H         25.71664         5.45467        -3.47755
O          4.74276         8.25851         2.39227
H          3.87752         8.62701         2.67302
O         16.37667        11.95260         1.90007
H         16.24615        12.83606         2.30628
O          3.74332         3.56894        -1.95363
H          2.96821         3.07301        -2.29323
O         38.50918         3.16125        -0.79944
H         38.76332         4.02923        -1.18409
O         21.92267         5.63215        -3.04045
H         21.10932         5.12363        -3.24700
O          3.52191        12.12821         2.46102
H          4.33988        11.70535         2.80136
O         20.72057        10.88618        -2.73489
H         19.81344        11.25460        -2.88560
O          9.74811        17.24864         2.30231
H          8.93969        17.75217         2.53720
O         32.92662        14.84080        -2.35476
H         33.70649        15.15576        -2.85755
H          0.35506         1.42341         0.11339
H          0.30549         3.88861         0.25914
H          2.49958         0.19071        -0.02844
H          0.25634         5.81835        -0.24617
H          0.23686         8.24898        -0.04714
H          0.25225        10.13053         0.14343
H          0.26827        12.55704         0.02453
H          0.21253        14.50350         0.42354
H          0.27558        16.96501         0.25580
H          1.55870        19.08987         0.28095
H          4.94487         0.23817         0.01154
H          3.66845        20.29148        -0.16055
H          7.37573         0.25898         0.13614
H          6.18483        20.26965        -0.31996
H          9.84649         1.22540        -1.22436
H          8.60293        20.29797        -0.13475
H         12.35679         0.28789         0.26761
H         11.06880        20.33933         0.13191
H         14.93190         0.28382         0.47364
H         13.52738        20.34783         0.28140
H         17.31301         0.31171         0.02619
H         15.99153        20.34846         0.09596
H         19.73057         0.31696        -0.34293
H         18.45432        20.33644        -0.05559
H         22.17166         0.31653        -0.66471
H         20.91822        20.33412        -0.02569
H         24.60312         0.32424        -0.78557
H         23.40097        20.32799        -0.10928
H         27.01073         0.33334        -0.52559
H         25.85964        20.30970        -0.18504
H         29.45356         0.28683        -0.26018
H         28.31815        20.31456        -0.36783
H         31.83031         0.33185         0.46967
H         30.78580        20.31986        -0.41025
H         34.21033         0.39878         1.26551
H         33.25610        20.31914        -0.39774
H         36.64565         0.40323         1.65921
H         35.71877        20.31044        -0.26085
H         39.15933         0.28061         1.69081
H         38.14952        20.30692        -0.06376
H         41.20576         1.53117         2.21718
H         42.52710         3.68156         2.10925
H         42.67693         6.03554         1.48961
H         42.64945         8.03367         1.68044
H         42.64659        10.43621         1.47519
H         42.68882        12.33925         1.26462
H         42.70350        14.75678         1.06873
H         42.74467        16.64820         0.76498
H         40.57335        20.33260         0.25411
H         42.70945        19.10692         0.64202
