         204
 CSIRO Nanostructure Databank - Neutral Graphene Oxide Data Set
C        -11.08177         0.66529         0.49317
C         -9.86587         1.42358         0.34213
C         -8.63707         0.70156         0.17969
C         -7.41882         1.43561         0.02587
C         -6.17080         0.71027        -0.11974
C         -4.93489         1.39369        -0.22983
C         -3.71406         0.70425        -0.31951
C         -2.38992         1.42326        -0.14971
C         -1.27379         0.75870        -0.95928
C          0.03296         1.48528        -0.74468
C          1.30177         0.76221        -1.10685
C          2.52803         1.45923        -0.57506
C          3.73037         0.73042        -0.43019
C          4.94251         1.42384        -0.11509
C          6.17891         0.70501         0.01491
C          7.39956         1.43649         0.25874
C          8.67916         0.70883         0.56809
C          9.90047         1.42659        -0.00121
C         11.14709         0.67577         0.41752
C         -9.86516         2.82849         0.37613
C         -8.66689         3.57095         0.23513
C         -7.45520         2.84114         0.04266
C         -6.19891         3.60575        -0.04201
C         -4.91450         2.86962        -0.17563
C         -3.69800         3.56187        -0.69268
C         -2.41830         2.89638        -0.46225
C         -1.23793         3.59005        -0.56246
C          0.02708         2.84961        -0.56450
C          1.26397         3.58868        -0.44064
C          2.49858         2.85671        -0.36460
C          3.70637         3.55645        -0.04047
C          4.90462         2.82637         0.08956
C          6.13265         3.51523         0.51353
C          7.41477         2.80622         0.39690
C          8.66648         3.56107         0.49012
C          9.86635         2.89704         0.35686
C         -8.63596         5.00774         0.34184
C         -7.48712         5.76697         0.09142
C         -6.28784         5.05126        -0.40623
C         -5.01717         5.80301        -0.69465
C         -3.71546         5.06120        -0.85787
C         -2.44519         5.77184        -0.62923
C         -1.23136         5.04399        -0.58897
C          0.00306         5.72998        -0.41663
C          1.24350         4.99530        -0.33044
C          2.47086         5.70993        -0.13089
C          3.69065         4.99882         0.05675
C          4.89118         5.72805         0.26380
C          6.13331         5.01827         0.60799
C          7.43097         5.72995         0.52804
C          8.61119         5.00892         0.55834
C         -7.40068         7.17962         0.18230
C         -6.19119         7.88927         0.00558
C         -4.96271         7.22772        -0.32535
C         -3.72521         7.88854        -0.27066
C         -2.46856         7.17500        -0.41221
C         -1.23648         7.86728        -0.27158
C         -0.00085         7.15006        -0.29396
C          1.23384         7.85632        -0.14864
C          2.46554         7.13786        -0.07818
C          3.69156         7.84981         0.06419
C          4.91306         7.13501         0.20983
C          6.17275         7.84683         0.33840
C          7.37780         7.15887         0.44893
C         -6.13212         9.31000         0.23285
C         -4.94403         9.98691         0.20483
C         -3.69282         9.30587        -0.00690
C         -2.47372         9.98288         0.03767
C         -1.22949         9.29642        -0.08812
C         -0.00238         9.97700        -0.00998
C          1.23296         9.28326        -0.04310
C          2.47475         9.97411         0.05625
C          3.68648         9.28483         0.10208
C          4.95291         9.97107         0.21341
C          6.13094         9.28878         0.31287
C        -11.07321        -0.70152         0.50453
C         -9.84709        -1.44845         0.37641
C         -8.62321        -0.71971         0.20588
C         -7.38885        -1.43888         0.09165
C         -6.16542        -0.71140        -0.08684
C         -4.92724        -1.41877        -0.16030
C         -3.69185        -0.70480        -0.30346
C         -2.41954        -1.40393        -0.39483
C         -1.21366        -0.71432        -0.64204
C          0.02865        -1.39351        -0.74548
C          1.27383        -0.73039        -0.82622
C          2.50885        -1.43893        -0.72898
C          3.75512        -0.70098        -0.55736
C          4.98054        -1.38290        -0.43568
C          6.20152        -0.69881        -0.16767
C          7.46184        -1.44136        -0.03438
C          8.66754        -0.75514         0.22583
C          9.89839        -1.44865         0.35014
C         11.12339        -0.66613         0.54778
C         -9.82715        -2.84767         0.42498
C         -8.61103        -3.58236         0.33220
C         -7.37478        -2.85441         0.17262
C         -6.13019        -3.56417         0.15281
C         -4.92988        -2.82829         0.03253
C         -3.64280        -3.49604         0.23985
C         -2.40306        -2.81748        -0.17061
C         -1.23830        -3.55532        -0.35718
C         -0.02209        -2.86218        -0.79501
C          1.30082        -3.62807        -0.76102
C          2.53515        -2.85733        -0.62029
C          3.73716        -3.59276        -0.45014
C          4.99776        -2.84959        -0.62573
C          6.28943        -3.61281        -0.45716
C          7.50158        -2.85211        -0.11972
C          8.71086        -3.57418         0.11167
C          9.91639        -2.84494         0.30652
C         -8.59054        -4.98832         0.39342
C         -7.37927        -5.73873         0.27461
C         -6.11677        -5.00924         0.19165
C         -4.91413        -5.72878         0.14028
C         -3.64020        -5.01823         0.30642
C         -2.38733        -5.71984         0.01806
C         -1.20912        -4.98339        -0.20972
C          0.03716        -5.68659        -0.20439
C          1.28528        -5.02915        -0.32543
C          2.51218        -5.70501        -0.12589
C          3.75116        -4.98851        -0.24182
C          4.99391        -5.73000        -0.06019
C          6.23298        -5.04775        -0.13462
C          7.46852        -5.72983         0.07755
C          8.68469        -4.99586         0.13679
C         -7.37468        -7.12848         0.27662
C         -6.15920        -7.92824        -0.10500
C         -4.86903        -7.15635         0.04762
C         -3.65667        -7.84562         0.04771
C         -2.39201        -7.14048        -0.01864
C         -1.17043        -7.84967        -0.03233
C          0.02015        -7.08457         0.07058
C          1.25181        -7.64823         0.49413
C          2.48813        -7.07712         0.28308
C          3.72964        -7.88923         0.59587
C          4.98590        -7.12821         0.19771
C          6.21738        -7.83340         0.19079
C          7.43803        -7.14622         0.16373
C         -6.05629        -9.28849         0.54463
C         -4.87344        -9.92288         0.66223
C         -3.61622        -9.29434         0.24959
C         -2.44033        -9.98742         0.14029
C         -1.22603        -9.31437        -0.47309
C          0.07740       -10.11241        -0.52045
C          1.23366        -9.80220         0.11905
C          2.61954       -10.15989        -0.16668
C          3.70895        -9.34081         0.04913
C          5.01817        -9.95640        -0.09320
C          6.18374        -9.28271         0.09116
O         -3.56066        -4.19583         1.52891
O          8.82735         0.77319         2.02271
H          8.00423         0.42807         2.42711
O          5.99264         4.19653         1.82517
O         -5.95762         5.44899        -1.77199
O          0.57427        -3.40808        -2.02127
O          3.80087        -8.04135         2.04716
H          2.96615        -8.48670         2.31759
O          1.16440        -8.86695         1.18105
O         -5.32013         3.40237         1.14675
O          5.75745        -3.28835        -1.80800
O         -6.31160        -8.19469        -1.55512
H         -6.49882        -7.33494        -1.98871
O         -3.75963         4.17325        -2.02386
O         -1.54854        -9.20238        -1.90786
H         -2.43800        -8.79479        -1.98562
O          9.81757         1.35587        -1.45469
H         10.62261         1.77195        -1.82644
O         -2.01829         1.26602         1.24922
H         -2.74132         1.63650         1.79812
O          1.37833         0.86927        -2.57762
H          0.46300         0.73899        -2.91995
O         -1.56011         0.85820        -2.38631
H         -2.38685         0.36178        -2.56680
H         12.04599        -1.21713         0.78824
H         12.09132         1.23027         0.53737
H         10.80536         3.47317         0.31802
H          9.56774         5.55440         0.54269
H          8.32078         7.72600         0.48106
H          7.08028         9.83850         0.39629
H          4.95091        11.07118         0.21818
H          2.47088        11.07298         0.11424
H          0.00093        11.07114         0.10686
H         -2.46467        11.06975         0.21033
H         -4.92381        11.07237         0.38212
H         -7.06865         9.84842         0.44019
H         -8.29793         7.74653         0.47533
H         -9.56653         5.52395         0.62391
H        -10.81543         3.36228         0.52837
H        -12.02980         1.21187         0.60584
H        -12.01437        -1.25800         0.62593
H        -10.77209        -3.39686         0.55402
H         -9.54021        -5.53351         0.50208
H         -8.33198        -7.66599         0.36182
H         -6.98817        -9.79131         0.84479
H         -4.82663       -10.94408         1.07088
H         -2.42398       -11.07191         0.32770
H          0.12498       -10.83069        -1.35311
H          2.81777       -11.16573        -0.57536
H          5.04663       -11.03795        -0.29891
H          7.14248        -9.81968         0.03953
H          8.38247        -7.70875         0.20239
H          9.62907        -5.54294         0.27439
H         10.86247        -3.38996         0.44029
