         651
 CSIRO Nanostructure Databank - Neutral Graphene Oxide Data Set
C          6.02768        31.87458         0.40677
C          5.95542        33.20279         0.18349
C          8.44345        27.54950        -0.26055
C          8.41259        28.97667        -0.29495
C          7.24489        29.69875         0.08006
C          8.41221        31.80384        -0.24265
C          7.22896        31.09942         0.07775
C          8.43042        33.30206        -0.07470
C          7.09943        33.93260        -0.48803
C          8.33272        36.12783        -0.57539
C          7.15705        35.42000        -0.26631
C          8.35183        37.52636        -0.63922
C         10.95046        23.33956        -0.15340
C         10.90167        24.68963        -0.48446
C          9.68512        25.41911        -0.33567
C         10.82191        27.50394        -0.94754
C          9.62618        26.81461        -0.51208
C         10.71976        28.95784        -1.33923
C          9.57847        29.69628        -0.67914
C         10.78477        31.85934        -0.92770
C          9.58430        31.10445        -0.60400
C         10.77264        33.23360        -1.04007
C          9.58456        33.99633        -0.76051
C         10.79320        36.11508        -1.09902
C          9.55921        35.37624        -0.89369
C         10.82147        37.53071        -1.04368
C          9.51988        38.28837        -1.19691
C         10.78574        40.38249        -0.59407
C          9.59166        39.67786        -0.62982
C         10.84692        41.76254        -0.28445
C         13.44353        19.03326         0.00784
C         13.39620        20.40881        -0.23333
C         12.21778        21.15359        -0.10409
C         13.30554        23.24554        -0.95403
C         12.27251        22.65002        -0.01709
C         13.30995        24.71045        -1.15071
C         12.10144        25.39830        -0.93304
C         13.19096        27.52199        -1.69053
C         11.99844        26.80904        -1.17286
C         13.21655        28.99541        -1.51033
C         12.04978        29.66064        -1.22841
C         13.13768        31.83480        -1.81285
C         12.09763        31.13265        -0.95575
C         13.22474        33.21098        -1.74368
C         11.93143        33.98751        -1.66686
C         13.23211        36.08211        -1.00702
C         12.01676        35.41266        -1.18711
C         13.27925        37.49714        -0.88617
C         12.04594        38.20836        -0.98449
C         13.35482        40.41841        -0.80694
C         12.04554        39.68928        -0.97523
C         13.30914        41.80195        -0.32244
C         12.07367        42.47565        -0.17442
C         13.20682        44.58333         0.48718
C         12.04839        43.87005         0.17226
C         13.23523        45.96197         0.74827
C         15.79878        14.71716         0.50572
C         15.75302        16.03369        -0.07925
C         14.62730        16.80031         0.05942
C         15.69202        18.85658        -1.04511
C         14.75700        18.30147         0.07002
C         15.91104        20.35257        -0.81820
C         14.67409        21.13257        -0.53268
C         15.83386        23.21930        -1.45797
C         14.58094        22.49610        -1.13570
C         15.76524        24.64663        -1.64150
C         14.53043        25.33473        -1.55019
C         15.78280        27.57176        -1.76456
C         14.48434        26.78291        -1.88626
C         15.66933        29.00105        -2.30849
C         14.41073        29.70327        -1.94341
C         16.04881        32.08395        -2.29306
C         14.21191        31.03120        -2.28637
C         15.85654        33.31111        -1.59177
C         14.51219        33.87766        -1.40259
C         15.73753        35.98793        -0.60551
C         14.46749        35.29531        -0.85390
C         15.69319        37.39380        -0.37887
C         14.53504        38.14941        -0.59471
C         15.71279        40.29316         0.15300
C         14.68272        39.66041        -0.76682
C         15.73644        41.64158         0.40183
C         14.57324        42.47110         0.00899
C         15.55929        44.38525         1.45197
C         14.52095        43.88712         0.46910
C         15.62513        45.88889         1.38626
C         14.45685        46.62900         1.08177
C         15.63791        48.76923         1.49539
C         14.48602        48.05193         1.12522
C         15.71329        50.15388         1.31787
C         18.42236        11.17671         2.76516
C         18.33750        12.36154         1.96467
C         17.10530        12.92051         1.62489
C         18.24186        14.76598         0.44199
C         17.00777        14.12363         0.85950
C         18.21771        15.82475        -0.47109
C         16.97387        16.57599        -0.76681
C         18.21898        18.83352        -1.61663
C         16.97679        18.03408        -1.27417
C         18.20786        20.29868        -1.67386
C         17.06911        21.04404        -1.43863
C         18.24812        23.20908        -1.92282
C         17.01963        22.49205        -1.62306
C         18.24719        24.63414        -2.00966
C         16.99848        25.38180        -1.94296
C         18.26331        27.46845        -2.43502
C         16.99532        26.75574        -2.17145
C         18.29907        29.01198        -2.44005
C         16.99985        29.77924        -2.45712
C         18.25052        31.71356        -1.38908
C         17.10393        31.20379        -2.06327
C         18.12389        32.99400        -0.58373
C         16.95294        33.88144        -0.93094
C         18.17077        35.86950        -0.05031
C         16.92735        35.23684        -0.47870
C         18.16305        37.23450         0.29145
C         16.88003        37.98452         0.28979
C         18.11394        40.15055         0.88526
C         16.85673        39.46904         0.58732
C         18.12373        41.54937         1.07331
C         16.90671        42.31099         0.95669
C         18.09792        44.34523         1.68146
C         16.89947        43.68214         1.30626
C         18.07390        45.74845         2.18794
C         16.77453        46.53439         2.00688
C         18.12610        48.76112         2.15875
C         16.79418        48.03307         2.07266
C         18.11830        50.18374         1.80259
C         16.93535        50.88124         1.47601
C         18.16183        53.04897         1.23823
C         16.98615        52.26567         1.13621
C         18.19821        54.37827         0.84503
C         20.97211         7.51728         4.78174
C         20.91310         8.82341         4.25506
C         19.69678         9.37009         3.83041
C         20.89137        11.02862         2.37810
C         19.63015        10.56627         3.07039
C         20.84659        12.45982         1.90794
C         19.57131        13.03479         1.57530
C         20.72590        15.08813         0.68590
C         19.50060        14.23245         0.86455
C         20.68411        15.89320        -0.58573
C         19.45427        16.15842        -1.11991
C         20.70175        18.80022        -2.07079
C         19.35181        18.19076        -2.06468
C         20.72863        20.28216        -2.14756
C         19.38096        21.00043        -2.35710
C         20.69103        23.17055        -2.11879
C         19.45316        22.48419        -2.04244
C         20.69324        24.58350        -2.22582
C         19.48808        25.31897        -2.15456
C         20.71299        27.50939        -2.18981
C         19.53250        26.76703        -2.20824
C         20.71887        28.93355        -1.99561
C         19.53350        29.66961        -1.97060
C         20.65250        31.69216        -0.96129
C         19.46917        31.02428        -1.43294
C         20.61342        32.97236        -0.37735
C         19.41160        33.73580        -0.34079
C         20.61795        35.76834         0.46653
C         19.38828        35.09863         0.03860
C         20.58345        37.20058         0.78483
C         19.35016        37.88781         0.74355
C         20.60630        40.03331         1.39973
C         19.28487        39.30257         1.17815
C         20.60698        41.51392         1.24556
C         19.33307        42.25497         1.37994
C         20.58426        44.33836         2.01219
C         19.32439        43.62760         1.64788
C         20.60504        45.80092         1.96024
C         19.40697        46.52524         2.50367
C         20.60258        48.68789         1.96799
C         19.40557        48.00887         2.11863
C         20.63867        50.14983         1.87495
C         19.37782        50.90337         1.97196
C         20.69041        53.04417         1.51275
C         19.38872        52.40879         1.78714
C         20.68980        54.49118         1.23866
C         19.36638        55.26431         1.17872
C         20.55746        56.99329        -0.31794
C         19.41896        56.48641         0.28958
C         20.57995        58.22554        -1.01792
C         23.44926         4.81513         5.53043
C         22.22501         5.49525         5.42024
C         23.46063         7.59663         4.99617
C         22.17682         6.86302         5.09545
C         23.45511         9.02288         4.51564
C         22.12583         9.74244         4.27515
C         23.35665        11.25864         2.70117
C         22.17071        10.68771         3.10192
C         23.32829        12.46108         1.86213
C         22.04757        13.09364         1.56781
C         23.20546        14.97989         0.46808
C         22.03069        14.35026         0.86208
C         23.20444        16.12295        -0.39789
C         21.92699        16.57349        -1.02334
C         23.14060        18.78922        -1.27634
C         21.89908        17.99812        -1.57521
C         23.15397        20.28766        -1.31709
C         21.81527        21.04374        -1.41091
C         23.15691        23.05917        -1.93824
C         21.93716        22.43818        -1.95277
C         23.22382        24.50377        -2.21217
C         21.97008        25.29431        -2.41598
C         23.02427        27.33264        -1.25486
C         22.05869        26.82592        -2.32902
C         23.07785        28.81059        -1.08141
C         22.06288        29.64753        -1.88654
C         23.20093        31.69513        -0.77729
C         21.95874        31.07938        -1.31821
C         23.12859        32.98880        -0.06157
C         21.79727        33.52479         0.39108
C         23.05863        35.65416         0.98623
C         21.79009        35.02966         0.55648
C         23.07190        37.15087         1.20766
C         21.80880        37.91499         1.05914
C         23.11735        40.02791         1.47520
C         21.87082        39.29942         1.23679
C         23.11461        41.40609         1.73489
C         21.91438        42.20670         1.46966
C         23.16528        44.36523         1.91521
C         21.88471        43.61090         1.97717
C         23.14985        45.77260         1.80516
C         21.84604        46.50331         1.48292
C         23.07159        48.64025         1.85548
C         21.87875        47.97477         1.84156
C         23.09313        50.12088         1.91286
C         21.81838        50.84537         1.71149
C         23.09434        52.90381         1.01250
C         21.85685        52.28665         1.46480
C         23.12415        54.17676         0.48930
C         21.93388        55.04076         0.58860
C         23.02053        56.68151        -1.06058
C         21.78994        56.16661        -0.37555
C         23.02845        58.09786        -1.48063
C         21.77771        58.79407        -1.54074
C         22.94953        60.73988        -2.42708
C         21.76621        60.11920        -2.05320
C         24.66355         5.43876         5.25163
C         25.89496         7.45518         4.53545
C         24.71569         6.81284         4.90590
C         25.91974         8.77728         4.00180
C         24.68314         9.53283         3.85720
C         25.88299        11.15653         2.36255
C         24.64287        10.67563         3.09337
C         25.77412        12.64122         2.06614
C         24.51184        13.13865         1.59848
C         25.73858        15.05061         0.51918
C         24.47317        14.60262         1.19111
C         25.70476        15.98307        -0.64838
C         24.40367        16.73292        -0.78715
C         25.62323        18.76887        -1.49096
C         24.42621        18.05732        -1.31770
C         25.63624        20.19676        -1.71647
C         24.44147        20.93435        -1.68353
C         25.63433        23.06701        -1.99720
C         24.43136        22.36262        -1.86208
C         25.68157        24.46696        -1.65570
C         24.36888        25.13418        -1.49128
C         25.50483        27.19034        -0.46746
C         24.24297        26.51098        -0.93510
C         25.50903        28.67428        -0.42250
C         24.38266        29.43114        -0.69712
C         25.60905        31.53548        -0.32713
C         24.43153        30.87547        -0.61443
C         25.59306        33.01826        -0.25627
C         24.31748        33.69215         0.11467
C         25.61064        35.65075         1.00167
C         24.33791        34.98572         0.67772
C         25.62430        37.16151         1.22530
C         24.34805        37.90655         0.88092
C         25.59518        39.97301         1.50705
C         24.36726        39.31936         1.41652
C         25.64165        41.39994         1.90518
C         24.33957        42.15405         2.05895
C         25.60852        44.35146         1.95229
C         24.37126        43.64619         1.95253
C         25.59025        45.77319         2.00451
C         24.37001        46.47270         1.84014
C         25.62217        48.69630         1.70520
C         24.34759        47.92873         1.42090
C         25.63972        50.04634         1.65536
C         24.38048        50.83358         1.67873
C         25.55996        53.05878         1.33564
C         24.39000        52.12813         0.90909
C         25.58579        54.23107         0.36940
C         24.37140        54.75948        -0.01279
C         25.62085        56.70151        -1.13031
C         24.32657        55.96292        -0.87272
C         25.60851        58.15694        -1.57071
C         24.22901        58.76456        -1.77890
C         24.17664        60.08307        -2.26235
C         27.12015         9.31469         3.52228
C         28.46534        10.98152         2.40860
C         27.20956        10.56958         2.85879
C         28.73737        12.33624         1.98105
C         26.85163        13.50049         1.99072
C         28.22416        15.00810         0.51967
C         26.93245        14.56983         1.01401
C         28.19546        16.32912        -0.14455
C         26.93123        16.85976        -0.69745
C         28.09281        18.70039        -1.98541
C         26.89258        18.09121        -1.29136
C         28.12093        20.21870        -1.95918
C         26.91984        20.87788        -1.94327
C         28.15414        23.09926        -2.26396
C         26.86291        22.30802        -2.43847
C         28.14047        24.54094        -1.76573
C         26.85150        25.13087        -1.33128
C         28.14516        27.11351        -0.34417
C         26.82337        26.42337        -0.59756
C         28.12053        28.59204        -0.04909
C         26.77636        29.34132        -0.05880
C         28.06839        31.43590        -0.05070
C         26.83824        30.80576        -0.16615
C         28.08788        32.87575         0.26767
C         26.88241        33.70940         0.01185
C         28.07924        35.77395         0.67084
C         26.89203        35.05924         0.61683
C         28.11771        37.19293         0.87417
C         26.89403        37.90702         1.04565
C         28.08832        40.08294         1.14463
C         26.83179        39.30080         1.21244
C         28.11794        41.44171         1.84039
C         26.84323        42.17588         1.41216
C         28.06371        44.29886         1.58280
C         26.86739        43.64289         1.76491
C         28.14141        45.75435         1.80560
C         26.87636        46.50303         2.12375
C         28.14633        48.66105         1.55269
C         26.89639        48.02716         2.16413
C         28.16025        50.06617         1.46125
C         26.91303        50.81289         1.72485
C         28.12456        52.92355         0.90025
C         26.89204        52.30398         1.45418
C         28.07261        54.22811         0.37901
C         26.84343        54.89284         0.06768
C         26.84070        56.14799        -0.53620
C         29.53224        12.88131         1.01212
C         30.64980        14.89113         0.12152
C         29.44966        14.29459         0.59908
C         30.73150        16.19259        -0.42521
C         29.47291        16.95357        -0.60899
C         30.72950        18.74529        -1.88712
C         29.43230        18.03169        -1.65168
C         30.70324        20.20226        -2.19142
C         29.38160        20.89013        -2.52022
C         30.60966        23.07737        -2.06528
C         29.43138        22.37593        -2.19915
C         30.62008        24.48400        -1.68507
C         29.42889        25.12480        -1.37979
C         30.68637        27.21642        -0.76615
C         29.43332        26.44223        -0.71183
C         30.68774        28.63211        -0.23418
C         29.35715        29.36425        -0.27809
C         30.49339        31.63487        -0.60869
C         29.32355        30.73924        -0.18710
C         30.65166        32.84757         0.31479
C         29.36337        33.58730         0.51966
C         30.64597        35.79966         0.36296
C         29.34169        35.06831         0.32335
C         30.60118        37.23140         0.67470
C         29.38616        37.88181         0.81441
C         30.64143        40.03315         1.33396
C         29.37157        39.35859         0.92291
C         30.65120        41.51111         1.56419
C         29.37003        42.23076         1.52114
C         30.59537        44.34639         1.27309
C         29.33834        43.59607         1.40341
C         30.58671        45.72877         1.19285
C         29.26760        46.45452         1.07458
C         30.55300        48.62465         1.04957
C         29.32553        47.93994         1.30715
C         30.55201        50.03160         0.97117
C         29.35463        50.76957         1.12508
C         29.31552        52.17917         0.88242
C         31.92881        16.85007        -0.71089
C         33.14076        18.86120        -1.42353
C         31.96996        18.17126        -1.28017
C         33.19546        20.13927        -2.21581
C         31.87585        20.89202        -2.19695
C         33.20579        23.11471        -2.02752
C         31.90493        22.37550        -2.28526
C         33.09759        24.48285        -1.46016
C         31.89326        25.15703        -1.40679
C         33.13838        27.31355        -0.94190
C         31.87359        26.56846        -0.99807
C         33.14695        28.71319        -0.85620
C         31.84340        29.41285        -0.83100
C         33.10881        31.62983        -0.71771
C         31.81709        30.90622        -0.86000
C         33.13095        32.96354        -0.32257
C         31.92774        33.60759         0.25208
C         33.13593        35.75262         0.44587
C         31.93412        35.07488         0.42658
C         33.17736        37.21017         0.60281
C         31.88896        37.95199         0.56251
C         33.16336        40.12855         1.13273
C         31.90752        39.41335         0.86430
C         33.14940        41.50844         1.20169
C         31.90563        42.24425         1.31597
C         33.10140        44.36510         1.04324
C         31.86043        43.62831         1.21820
C         33.04978        45.76142         0.95525
C         31.81478        46.47527         1.02377
C         31.76880        47.87167         0.90845
C         34.41038        20.96325        -1.88039
C         35.80153        22.93599        -1.97184
C         34.47091        22.31869        -1.89974
C         36.08875        24.21244        -2.21411
C         34.25636        25.15001        -0.79327
C         35.57581        27.31236        -1.21116
C         34.37137        26.61883        -1.02875
C         35.57656        28.73507        -1.16253
C         34.35564        29.44476        -0.95931
C         35.57627        31.57646        -0.80984
C         34.35821        30.89363        -0.86485
C         35.59040        33.09081        -0.82885
C         34.35433        33.70869        -0.22710
C         35.64952        35.71227         0.47069
C         34.36897        35.01276         0.23937
C         35.64771        37.19046         0.72182
C         34.34848        37.90830         0.72947
C         35.64654        40.10171         0.74462
C         34.43498        39.33534         1.24571
C         35.58978        41.51016         0.74315
C         34.39655        42.24558         1.01530
C         34.33334        43.64526         0.95174
C         36.54765        25.41307        -2.49472
C         38.01325        27.38903        -2.01529
C         36.86165        26.51897        -1.46899
C         38.04294        28.81260        -1.50523
C         36.81545        29.47240        -1.22398
C         38.05899        31.56159        -0.87294
C         36.81531        30.87132        -0.96356
C         38.08357        32.93585        -0.35435
C         36.86024        33.71745        -0.30899
C         38.13410        35.81482         0.03046
C         36.90342        35.04005         0.07090
C         38.05397        37.25692         0.13603
C         36.88599        37.95898         0.42309
C         36.81706        39.38521         0.43310
C         39.23463        29.53104        -1.51371
C         40.49499        31.68731        -1.26599
C         39.26933        30.91024        -1.16969
C         40.56148        33.01827        -0.99506
C         39.43602        33.73847        -0.37778
C         39.32103        35.19205        -0.35210
O         21.20735        43.73877         3.27160
O         13.55092        22.51064        -2.19156
O         35.77257        36.25624         1.85458
O         16.19155        29.37191        -3.59765
O         28.90432        26.38717         0.68916
O         16.50485        38.45885         1.63996
O         22.75987        31.98270        -2.18792
O         23.82976        50.81216         3.02358
O         19.28819        51.84210         3.12551
O         22.07481        55.79364        -1.76648
O         25.61677        36.27835         2.35047
O         23.61223         8.73060         5.94597
O         19.82193        39.55992         2.53031
O         17.26633        48.51715         3.35498
O         12.70913        40.28531        -2.14791
O         23.15491        19.57594        -0.01852
O         29.94076        35.49382        -0.93025
O         30.06811        32.21976        -1.81638
O         21.12497        19.51648        -3.31404
O         14.30701        34.15387         0.07144
O         22.13886        16.85602        -2.44562
O         30.18857        17.78185        -2.86787
O         38.92245        33.08944         0.82510
O         15.67715        20.94736         0.52264
O         16.72334        16.91692        -2.17867
O         34.92107        24.58269         0.07751
O         28.15339        24.21619        -3.21936
O         13.63901        27.09617        -3.03419
O         19.34724        16.82727        -2.34704
O         18.40350        28.25518        -3.67571
O         14.98312        43.60767        -0.88096
O         28.89184        17.39501         0.65636
O         31.84339        38.95739        -0.53807
O         27.40628        28.87425         1.19077
O         32.65906        22.97615        -3.39363
O         25.12217        41.67684         3.21824
O         27.98636        13.26392         2.74610
O         26.34359        33.66443        -1.35146
O         28.70802        40.06809        -0.18828
O         22.43650        27.95546        -0.07720
O         27.05603        51.79024         2.81500
O         23.05093        36.26981         2.34932
O         23.93541        25.35228        -0.09827
O         26.06170        26.46192         0.65734
O         31.66132        30.10794        -2.09349
O         28.58115        33.12714         1.65173
O         17.12706        45.88276         3.29992
O         31.49345        32.80246         1.47811
O         21.64740        55.31848         2.00137
O         22.80544        24.84321        -3.55833
O         25.03698        55.80182        -2.15133
O         27.81057        46.05157         3.18889
O         30.70444        40.51847         2.70330
O         21.39064        42.00967         0.09642
O         15.06312        31.68540        -3.19794
O         19.07540        20.95284        -3.77556
H         19.67982        20.28547        -4.18269
O         28.86723        46.31519        -0.33889
H         29.56226        46.73740        -0.88756
O         14.94851        18.80459        -2.28301
H         15.17680        17.95299        -2.72399
O         29.23116        20.78294        -3.96829
H         28.36127        21.19912        -4.20259
O         17.75240        32.48331         0.76348
H         17.75673        33.24631         1.38158
O         37.31171        25.95981        -0.23373
H         36.59103        25.37728         0.11772
O          9.28518        38.42974        -2.65049
H         10.08884        38.83554        -3.04112
O         19.53048        46.50534         3.94950
H         18.62236        46.63550         4.31394
O         15.27866        39.79662        -2.09586
H         14.52952        39.90957        -2.72778
O         25.25604        53.61622         2.62469
H         25.58681        52.97794         3.30004
O         15.97662        27.80208        -0.32646
H         16.05078        26.93227         0.12171
O         15.34813        18.53342         1.38517
H         15.41658        19.51473         1.51019
O         19.11855        55.77314         2.52713
H         19.99806        55.95369         2.93087
O         15.06064        44.03594         2.77942
H         15.65474        44.48540         3.42691
O         25.79058        10.53760         1.02440
H         24.93547        10.81498         0.63048
O         26.96355        48.40338         3.57102
H         27.54081        47.74288         4.01980
O         12.77688        22.97379         1.34014
H         12.13628        22.61560         1.99054
O         34.64693        39.16318         2.69198
H         35.32301        38.46099         2.81619
O         26.72632        22.14991        -3.89812
H         26.88412        23.04272        -4.28595
O          8.57685        33.56185         1.35379
H          9.39468        33.11733         1.66087
O         24.26861        47.88589        -0.04434
H         23.41776        47.43516        -0.28112
O         27.80460        18.38757        -3.38050
H         28.63138        18.57838        -3.88638
O         25.80404        15.14168        -1.85794
H         25.75151        15.73476        -2.63879
O         26.37599        58.26810        -2.77706
H         26.04394        57.58109        -3.39371
O         12.65760        31.25929         0.40066
H         12.98080        32.18081         0.52099
O         10.38635        28.97050        -2.77699
H         11.05256        28.41714        -3.24031
O         21.91139        10.61240         5.43196
H         22.31701        10.14579         6.20094
O         21.60342        32.98302         1.75875
H         22.13917        33.52659         2.37702
O         20.92589        10.21262         1.14149
H         21.61757        10.59149         0.55808
O         21.27713        21.22263        -0.07129
H         21.86180        20.72958         0.55329
O         26.73987        42.10474        -0.03509
H         27.60515        42.34891        -0.42768
O         24.32147        38.02784        -0.57451
H         25.04458        38.63026        -0.85288
O         11.54338        34.13896        -3.08381
H         11.28743        33.25492        -3.42440
O         28.07328        41.23181         3.26140
H         28.96759        40.92915         3.54770
O         21.79558        46.50130        -0.01746
H         21.79434        45.56494        -0.31453
O         35.55381        33.45903        -2.25901
H         34.73489        33.07543        -2.64150
O         20.69546        16.06655         1.80037
H         20.55780        15.56338         2.63129
O         37.88653        27.48125        -3.44648
H         38.55116        28.12232        -3.77218
O         24.59557        51.73327        -0.46981
H         24.55021        52.53503        -1.03472
O         22.56006        29.74578        -3.23304
H         22.87715        30.67211        -3.36808
O         33.39044        19.74786        -3.61811
H         33.30051        20.56369        -4.15739
O          6.97077        33.72644        -1.92770
H          6.16052        34.18549        -2.23213
O         24.42893        15.33535         2.46829
H         23.62583        15.04356         2.95031
O         22.66569        27.27027        -3.55945
H         22.07866        27.02973        -4.30579
O         30.99240        28.51084         1.18724
H         30.29077        27.94943         1.59027
H          5.16730        31.33368         0.83006
H          5.03071        33.75548         0.41284
H          7.53560        27.00698         0.04365
H          6.33716        29.14192         0.35692
H          6.23283        35.97809        -0.04480
H          7.43353        38.08636        -0.40326
H         10.03911        22.83234         0.19989
H          8.78341        24.87924        -0.00931
H          8.65148        40.19850        -0.39183
H          9.90835        42.29900        -0.08165
H         12.52107        18.50736         0.29983
H         11.27653        20.63621         0.13908
H         11.07482        44.38113         0.20802
H         12.31253        46.55512         0.66941
H         14.85218        14.26656         0.84091
H         13.75211        16.36822         0.57176
H         13.59468        48.61039         0.80453
H         14.83099        50.68727         0.93515
H         17.49046        10.75930         3.17762
H         16.17957        12.42539         1.95459
H         16.06286        52.74927         0.78497
H         17.29435        54.84050         0.42067
H         20.03867         6.93368         4.82579
H         18.76011         8.83639         4.06005
H         18.50034        57.09356         0.26199
H         19.65653        58.82221        -1.06549
H         23.44191         3.74643         5.78643
H         21.28343         4.94215         5.54875
H         22.93033        61.76431        -2.82383
H         20.80930        60.65464        -2.13117
H         25.59615         4.85675         5.27011
H         26.83802         6.88770         4.55288
H         26.13913        58.76927        -0.79260
H         25.11430        60.59155        -2.52521
H         28.05189         8.75715         3.70616
H         29.30504        10.27226         2.49971
H         29.01202        54.70259         0.05655
H         27.77998        56.71177        -0.63398
H         30.24141        12.24415         0.46301
H         31.58198        14.31394         0.21633
H         31.49161        50.56246         0.75929
H         30.23819        52.67236         0.53992
H         32.88467        16.35925        -0.47255
H         34.08256        18.43785        -1.04240
H         33.98249        46.33095         0.82645
H         32.70665        48.42416         0.74843
H         35.35681        20.39976        -1.85034
H         36.64833        22.22967        -1.88675
H         36.49379        42.07333         0.46138
H         35.26018        44.21726         0.79124
H         36.65173        25.70995        -3.55522
H         38.98514        26.87845        -1.76582
H         38.97772        37.82824        -0.04780
H         37.73048        39.94919         0.18426
H         40.17549        29.02029        -1.77142
H         41.38220        31.17714        -1.67106
H         41.48026        33.58030        -1.22136
H         40.18978        35.80121        -0.64522
