         232
 CSIRO Nanostructure Databank - Neutral Graphene Oxide Data Set
C        -11.08542         0.87775         0.91077
C         -9.91715         1.61213         0.45045
C         -8.78212         0.90792        -0.03035
C         -7.58645         1.62408        -0.27790
C         -6.39786         0.89752        -0.81829
C         -5.07309         1.62494        -0.79527
C         -3.79761         0.84019        -0.80019
C         -2.56869         1.43489        -0.17231
C         -1.27286         0.75350        -0.41947
C         -0.06825         1.46869        -0.25514
C          1.25393         0.80432        -0.60494
C          2.31503         1.24517         0.41507
C          3.68468         0.54390         0.21494
C          4.99585         1.27679         0.30139
C          6.23355         0.58109        -0.08869
C          7.49794         1.40576        -0.15156
C          8.71681         0.55975         0.26444
C         10.00616         1.34773         0.20450
C         11.23159         0.57024         0.26902
C         -9.86764         3.01528         0.58513
C         -8.69763         3.74038         0.29785
C         -7.54146         3.01663        -0.10074
C         -6.31618         3.81277        -0.49905
C         -5.02753         3.03549        -0.33936
C         -3.82730         3.67209        -0.10322
C         -2.57443         2.90717         0.09902
C         -1.28319         3.61677         0.09505
C         -0.07170         2.85829         0.07445
C          1.16631         3.55408         0.26302
C          2.41111         2.76745         0.49729
C          3.72800         3.46137         0.53410
C          5.00414         2.78365         0.08202
C          6.24993         3.54597         0.48940
C          7.49613         2.73329         0.68041
C          8.77007         3.49664         0.37301
C          9.98890         2.71809         0.26214
C         -8.66272         5.19934         0.38674
C         -7.48784         5.91037         0.32616
C         -6.21415         5.10043         0.31661
C         -4.98814         5.85588        -0.15069
C         -3.72584         5.11093        -0.03255
C         -2.50466         5.77937         0.03939
C         -1.26295         5.02515         0.08679
C         -0.01344         5.71558         0.09867
C          1.19004         4.95127         0.21290
C          2.49143         5.64757         0.06605
C          3.73279         4.95879         0.50857
C          5.02059         5.69789         0.55256
C          6.28290         4.91569         0.49455
C          7.53994         5.65445         0.39404
C          8.75847         4.86328         0.27282
C         -7.38747         7.34816         0.46385
C         -6.19629         8.04401         0.36210
C         -4.95290         7.34819        -0.04722
C         -3.63999         7.98968         0.11643
C         -2.45805         7.23204         0.08664
C         -1.18356         7.90074         0.16661
C          0.00727         7.15187         0.14144
C          1.29073         7.85488         0.30877
C          2.55127         7.13362        -0.01478
C          3.84848         7.84681         0.16237
C          5.02077         7.15900         0.30380
C          6.31647         7.87927         0.58285
C          7.53900         7.02569         0.30061
C         -6.07266         9.46955         0.55674
C         -4.86714        10.11098         0.47441
C         -3.60693         9.41400         0.27985
C         -2.38348        10.07430         0.24042
C         -1.14245         9.35688         0.16738
C          0.06759        10.05116         0.05820
C          1.34961         9.38795         0.25143
C          2.65855         9.99920        -0.09111
C          3.83546         9.29521        -0.04181
C          5.14455         9.90699        -0.28337
C          6.30100         9.24862        -0.05498
C        -11.15326        -0.47529         0.90315
C        -10.11562        -1.29560         0.25377
C         -8.86277        -0.55449        -0.26665
C         -7.62370        -1.35267        -0.37948
C         -6.41936        -0.62403        -0.84705
C         -5.13204        -1.40463        -0.87459
C         -3.83285        -0.65590        -0.87111
C         -2.56529        -1.34082        -0.49212
C         -1.30741        -0.60984        -0.72662
C         -0.10200        -1.37169        -1.03182
C          1.17807        -0.72758        -0.61265
C          2.42762        -1.53349        -0.56444
C          3.71775        -0.71776        -0.64391
C          5.00969        -1.49612        -0.54851
C          6.23627        -0.80654        -0.37350
C          7.50080        -1.54114        -0.45542
C          8.76228        -0.77889        -0.45163
C         10.07463        -1.55495        -0.30313
C         11.25684        -0.78213         0.14635
C         -9.96630        -2.71069         0.57880
C         -8.80180        -3.42509         0.28710
C         -7.60551        -2.72120        -0.17644
C         -6.34482        -3.47227        -0.22833
C         -5.15526        -2.81353        -0.43090
C         -3.87845        -3.57421        -0.09090
C         -2.56987        -2.82218        -0.32467
C         -1.35807        -3.59609        -0.65327
C         -0.13903        -2.89431        -1.10219
C          1.14902        -3.73199        -1.23639
C          2.48459        -2.89235        -1.27810
C          3.69176        -3.64758        -0.72782
C          4.97325        -2.90983        -0.88686
C          6.30589        -3.69007        -0.70964
C          7.53952        -2.92325        -0.47241
C          8.75832        -3.67085        -0.19606
C          9.97278        -2.99214        -0.08378
C         -8.74257        -4.82505         0.53182
C         -7.54867        -5.58926         0.42622
C         -6.31050        -4.91134         0.04502
C         -5.14318        -5.64717        -0.13520
C         -3.90752        -4.97458        -0.70956
C         -2.62247        -5.70651        -0.36601
C         -1.36893        -4.98259        -0.44455
C         -0.13156        -5.69661        -0.29945
C          1.11986        -4.90595        -0.27659
C          2.39372        -5.60823         0.07437
C          3.67346        -4.92640        -0.27024
C          4.91635        -5.59270         0.17098
C          6.21642        -5.04152        -0.16647
C          7.40891        -5.74117         0.15852
C          8.65119        -5.07762         0.06007
C         -7.53194        -6.95786         0.68935
C         -6.22579        -7.66353         0.91920
C         -5.08118        -7.04869         0.15021
C         -3.89857        -7.76167        -0.00027
C         -2.64037        -7.06481        -0.13771
C         -1.39201        -7.74441         0.39147
C         -0.10469        -7.06597        -0.02283
C          1.12455        -7.76807         0.07870
C          2.36535        -7.08935         0.17493
C          3.57273        -7.80843         0.28812
C          4.84369        -7.10825         0.51013
C          6.12206        -7.84588         0.47256
C          7.32043        -7.16494         0.42744
C         -6.24200        -9.16730         0.84208
C         -5.16558        -9.88170         0.49167
C         -3.91028        -9.26781        -0.07769
C         -2.61739        -9.92759         0.32594
C         -1.38997        -9.25271         0.26962
C         -0.17120        -9.93312         0.23402
C          1.10684        -9.25670        -0.17916
C          2.37548        -9.94755         0.23361
C          3.56445        -9.25614         0.32754
C          4.83690        -9.94243         0.50786
C          6.03190        -9.28948         0.54144
O         -3.95149        -3.83934         1.34060
H         -3.56140        -3.05630         1.79659
O         -2.73054         1.90890         1.19586
O          3.76898        -0.27289        -2.03708
H          3.52308        -1.10305        -2.57734
O         -6.45707         4.16470        -1.89170
H         -6.34374         3.35585        -2.43435
O          5.15040         2.89175        -1.33755
O          1.65037        -4.80701         1.07803
O          7.51384         2.44171         2.11904
H          6.58788         2.35196         2.43183
O          8.53520         0.11880         1.63780
H          8.38413         0.92501         2.19485
O          1.09145        -9.36195        -1.67375
H          1.92939        -8.97084        -2.00352
O          1.06134        -4.36714        -2.52505
H          1.62482        -3.77803        -3.11120
O          4.23766         5.44810         1.80367
O         -5.91971        -7.36037         2.33782
H         -5.72128        -6.40060         2.39719
O          4.41994         0.54847         1.46809
O          1.64933        -1.39861         0.62759
O          1.58930         1.28480        -1.91484
H          2.44207         0.85743        -2.20591
O         -1.45115        -7.52358         1.84384
H         -1.37949        -6.55853         2.00688
O          6.33514         8.11570         2.03567
H          6.03961         7.28726         2.47181
O         -9.92302        -0.97497        -1.17075
O         -5.96719         4.68943         1.68955
H         -6.11406         5.45858         2.27818
O         -4.04835        -4.92220        -2.14273
H         -3.20787        -4.60304        -2.53349
O          2.53759         6.33412        -1.24275
O          7.58687         1.78195        -1.53843
H          6.72123         2.26621        -1.74059
O          1.80033         0.83768         1.69184
H          2.45089         1.13564         2.36688
O         -3.97457        -9.57378        -1.52513
H         -3.22228        -9.11971        -1.96227
O         -5.11622         6.65438        -1.35342
O         -4.35878        -1.20481        -2.11418
O          4.81286        -6.08779         1.55012
O          1.39050         8.62770         1.53073
O          2.77676        -2.59339        -2.62322
O         -6.66739         0.17378        -2.05159
O         -4.25438         1.47911        -2.02249
O         -2.42641        -1.91006         0.86826
O          3.10496         3.04791         1.78381
O          9.57913        -1.01568        -1.60264
O          5.75049        -3.39546        -2.02662
O         -0.27019        -2.06443        -2.30770
H         12.19967        -1.32965         0.29837
H         12.16455         1.10789         0.49964
H         10.94329         3.26815         0.22340
H          9.70159         5.39902         0.08097
H          8.50097         7.54963         0.18254
H          7.26402         9.74791        -0.24197
H          5.16273        10.93701        -0.67206
H          2.67607        11.07525        -0.32296
H          0.04974        11.13107        -0.15519
H         -2.35400        11.17219         0.30655
H         -4.82827        11.20244         0.60780
H         -6.98442        10.04984         0.76354
H         -8.31216         7.90877         0.67555
H         -9.62236         5.72746         0.50061
H        -10.76564         3.54906         0.93084
H        -11.89824         1.46011         1.36991
H        -12.00035        -0.99168         1.37910
H        -10.79053        -3.21856         1.10297
H         -9.66364        -5.33583         0.85192
H         -8.46735        -7.46693         0.96922
H         -7.14730        -9.68042         1.20285
H         -5.21134       -10.98204         0.50028
H         -2.60695       -11.03049         0.31797
H         -0.17798       -11.03526         0.25280
H          2.37778       -11.04664         0.29283
H          4.81573       -11.04029         0.57135
H          6.96695        -9.86277         0.62655
H          8.26175        -7.73215         0.49019
H          9.57393        -5.64563         0.25136
H         10.85323        -3.52568         0.30717
