         210
 CSIRO Nanostructure Databank - Neutral Graphene Oxide Data Set
C         30.41466        31.96305        -0.13859
C         30.47305        33.11652         0.35161
C         30.62969        36.17296         1.54055
C         30.65667        37.41661         1.56204
C         30.49687        40.51253         0.62275
C         30.60019        41.80704         0.56809
C         32.79260        29.17599        -0.92506
C         31.75068        29.85660        -0.90723
C         32.79932        31.88796        -0.21304
C         31.56531        31.19689        -0.44264
C         32.82935        33.19560         0.39296
C         31.59314        33.89063         0.72085
C         32.90026        35.64814         1.70672
C         31.62392        35.14343         1.38234
C         32.94130        37.84595         1.56925
C         31.67480        38.39088         1.25222
C         32.88518        40.11143         0.01296
C         31.63013        39.63230         0.55549
C         32.94567        41.26469        -0.83098
C         30.56485        43.12887         0.32912
C         32.69828        44.15038        -0.80859
C         31.73745        43.66737        -0.12823
C         35.47557        27.56456        -0.58214
C         35.35839        28.96659        -0.63877
C         34.14794        29.71610        -0.96367
C         35.35755        31.81114        -0.04752
C         34.09729        31.23657        -0.55030
C         35.35489        33.15861         0.40865
C         34.09168        33.85145         0.63140
C         35.34963        35.97825         1.35785
C         34.10572        35.14451         1.20078
C         35.36873        37.45503         1.05742
C         34.16717        38.24307         0.99217
C         35.37043        40.14055        -0.01114
C         34.14117        39.49585         0.30670
C         35.34481        41.50164        -0.45524
C         34.11200        42.06783        -0.85837
C         35.26087        44.33268        -1.08329
C         33.97233        43.52027        -1.16642
C         35.33865        45.77052        -0.77127
C         37.76828        27.42853         0.06450
C         36.51257        26.91003        -0.30191
C         37.77681        28.87728         0.01249
C         36.57214        29.62398        -0.27976
C         37.79633        31.72508         0.21282
C         36.56280        31.06136        -0.07091
C         37.80994        33.12274         0.48674
C         36.57909        33.80687         0.67670
C         37.87128        35.96316         0.82862
C         36.63051        35.21916         1.11452
C         37.83959        37.36796         0.70246
C         36.57966        38.08603         0.68271
C         37.83231        40.16347         0.06534
C         36.59968        39.46671         0.26226
C         37.81877        41.58778        -0.23372
C         36.56947        42.26473        -0.46402
C         37.74500        44.41354        -0.46067
C         36.54874        43.65939        -0.67862
C         37.74246        45.85198        -0.38258
C         36.40163        46.34060        -0.49296
C         40.29360        24.67706         0.23700
C         39.26044        25.33954         0.47767
C         40.04954        27.49835         0.87636
C         38.92661        26.72997         0.51509
C         40.23111        28.85917         0.51718
C         39.01346        29.57532         0.20572
C         40.26766        31.68808         0.37357
C         39.03010        31.00417         0.21396
C         40.27761        33.07483         0.58497
C         39.06334        33.80215         0.65287
C         40.31848        35.96313         0.70553
C         39.08215        35.24194         0.74343
C         40.29562        37.37173         0.64055
C         39.06879        38.07741         0.54956
C         40.31549        40.17150         0.08727
C         39.06477        39.48872         0.26801
C         40.31145        41.56071        -0.50702
C         39.02088        42.31367        -0.30391
C         40.21699        44.50199        -0.23918
C         39.00796        43.73962        -0.34465
C         40.22017        45.91475        -0.25141
C         38.92772        46.57748        -0.28878
C         40.11446        48.68530        -0.33029
C         39.08061        47.99098        -0.27661
C         42.69192        24.68031        -0.88067
C         41.63481        25.08094        -0.01470
C         42.84989        27.31090        -0.01892
C         41.89449        26.40234         0.48429
C         42.76725        28.75190         0.21847
C         41.52722        29.45964         0.43882
C         42.79903        31.67719         0.42105
C         41.53971        30.93287         0.04573
C         42.81354        33.03690         0.54574
C         41.55975        33.77329         0.97307
C         42.78383        35.93246         0.54846
C         41.56757        35.25413         0.70172
C         42.81507        37.36827         0.48840
C         41.57174        38.13655         0.85530
C         42.78015        40.23178         0.12258
C         41.53314        39.53293         0.28431
C         42.76591        41.67272        -0.02006
C         41.54822        42.33183        -0.13545
C         42.80636        44.55555        -0.10173
C         41.48610        43.78304         0.00421
C         42.72066        46.00039        -0.41583
C         41.46339        46.68562        -0.30976
C         42.68355        48.73706        -0.63475
C         41.43096        48.13824        -0.40854
C         43.65119        25.43191        -1.18402
C         45.06479        27.56259        -1.05685
C         43.91917        26.79029        -0.84395
C         45.16518        28.87780        -0.44490
C         43.97791        29.48541         0.04137
C         45.31198        31.64446         0.20330
C         44.07017        30.88478         0.59453
C         45.30893        33.06090         0.25631
C         44.05518        33.78916         0.43896
C         45.21830        35.94128         0.01939
C         44.01127        35.17864         0.37450
C         45.25430        37.39248         0.19971
C         44.00821        38.08850         0.31827
C         45.24660        40.22792         0.02612
C         44.00167        39.53176         0.19430
C         45.24258        41.65149        -0.17071
C         44.02557        42.39224        -0.11468
C         45.28043        44.45997        -0.61457
C         44.05331        43.79051        -0.33060
C         45.20751        45.95178        -1.03497
C         43.93421        46.66204        -0.69951
C         43.72794        48.04184        -0.78278
C         47.44812        27.69900        -1.57456
C         46.32410        27.16096        -1.59182
C         47.74011        28.72769        -0.46947
C         46.44059        29.53428        -0.34975
C         47.76515        31.64088        -0.11425
C         46.51250        30.93079        -0.07498
C         47.77683        33.04659         0.10584
C         46.53875        33.75224         0.18086
C         47.77309        35.98260         0.25367
C         46.55919        35.21055        -0.01696
C         47.75085        37.37416         0.24766
C         46.47765        38.07400         0.15990
C         47.71534        40.18817        -0.07872
C         46.47006        39.50550         0.09237
C         47.62065        41.49269        -0.57645
C         46.46799        42.32676        -0.47334
C         47.90655        44.54398        -0.73226
C         46.49938        43.75975        -0.62357
C         47.52875        45.94337        -0.44465
C         46.46729        46.55738        -0.45533
C         50.23967        29.09546        -0.95170
C         48.96112        29.56338        -0.67251
C         50.24732        31.69877        -0.39863
C         49.00524        30.96877        -0.40380
C         50.23284        33.10190        -0.03778
C         49.00405        33.76420         0.19033
C         50.24140        35.94302         0.60856
C         48.95856        35.17628         0.73724
C         50.16855        37.39561         0.92427
C         48.96749        38.16247         0.46843
C         50.24717        40.35994         0.52548
C         48.99119        39.53558         0.24436
C         50.15853        41.84366         0.82579
C         49.35431        42.63736        -0.00874
C         49.63532        44.44365         1.32863
C         48.94871        43.96865         0.20309
C         51.37867        29.64639        -1.00052
C         52.64361        31.85500        -0.53729
C         51.50797        31.01434        -0.67379
C         52.57758        33.05722        -0.17338
C         51.46167        33.86028         0.11237
C         52.56386        36.09908         0.74413
C         51.43869        35.24491         0.46211
C         52.61525        37.30457         1.02134
C         51.43948        38.15265         1.27959
C         52.17474        40.50474         2.03717
C         51.46751        39.62713         1.09763
C         51.94142        41.66958         2.38899
C         50.89776        42.51283         1.86655
C         50.52227        43.85780         2.02288
O         50.58104        37.69958         2.34061
O         41.10000        26.85431         1.55502
O         45.84637        35.55860        -1.25684
O         36.15246        35.51108         2.48952
O         42.20333        44.25874         1.19985
O         34.69317        43.97240        -2.34543
O         32.98401        36.79988         2.50505
O         48.79463        42.01800        -1.14010
O         34.26235        30.76757        -1.93716
O         51.44975        40.04134        -0.27623
O         44.19113        30.70293         2.06386
H         44.37969        31.58221         2.45743
O         31.93504        41.58471        -1.64971
H         31.17711        40.97613        -1.53337
O         40.38269        41.36480        -1.97358
H         41.16307        40.79897        -2.15723
O         47.94226        27.99291         0.73589
H         47.16016        27.42436         0.89603
O         41.60579        33.68184         2.44809
H         41.48497        32.73919         2.69296
O         41.58886        30.92087        -1.43329
H         40.77362        30.47750        -1.75206
O         41.67225        38.31742         2.32324
H         40.84998        38.76205         2.62168
O         45.32992        45.98052        -2.45334
H         46.22426        45.65516        -2.69673
O         48.34341        44.47049        -2.08613
H         48.71184        43.57096        -2.24480
O         48.74227        35.00975         2.19352
H         49.11368        35.79925         2.64646
