         621
 CSIRO Nanostructure Databank - Neutral Graphene Oxide Data Set
C          5.88206        31.78462         0.97415
C          5.93596        33.14498         1.00364
C          8.28867        27.35847         0.34674
C          8.19484        28.81386         0.18768
C          7.02579        29.60696         0.65690
C          8.36716        31.69558         0.82573
C          7.06786        30.96901         0.78693
C          8.40083        33.16725         0.76722
C          7.17846        33.89143         0.87124
C          8.43080        36.00203         0.74782
C          7.20330        35.28901         0.84766
C          8.46727        37.42096         0.70208
C         10.81156        23.07151         0.11975
C         10.73973        24.51875         0.06390
C          9.54623        25.22604         0.20173
C         10.71748        27.39868        -0.11967
C          9.47712        26.66617         0.13521
C         10.74356        28.78753        -0.16638
C          9.49954        29.55378        -0.06807
C         10.81811        31.75430         0.08116
C          9.62182        30.96578         0.42006
C         10.85891        33.11864         0.35451
C          9.63081        33.84547         0.63765
C         10.90618        35.97883         0.62038
C          9.65760        35.27052         0.66636
C         10.92610        37.39891         0.59637
C          9.68123        38.12528         0.59951
C         10.92596        40.24534         0.35494
C          9.71769        39.54117         0.46917
C         10.92200        41.65137         0.10743
C         13.31147        19.01846         1.53081
C         13.20216        20.48221         1.24103
C         12.14074        20.86819         0.17815
C         13.24456        23.13919         0.20097
C         12.01190        22.39424         0.18130
C         13.24151        24.53304        -0.07103
C         11.97642        25.25841        -0.10905
C         13.22189        27.39082        -0.13635
C         11.94395        26.64456        -0.20279
C         13.24930        28.87922        -0.23125
C         11.96129        29.53794        -0.67773
C         13.34350        31.76445        -0.23193
C         11.99669        31.05451        -0.43570
C         13.31895        33.12530         0.29886
C         12.12386        33.82782         0.40298
C         13.36076        35.97639         0.68490
C         12.13621        35.26285         0.62281
C         13.38724        37.37550         0.56649
C         12.16674        38.09761         0.50557
C         13.41180        40.23774         0.34729
C         12.18459        39.53276         0.40339
C         13.39753        41.74867         0.47955
C         12.10430        42.39324         0.01318
C         13.27662        44.52858        -0.48143
C         12.08841        43.75588        -0.32735
C         13.24838        45.90365        -0.60805
C         15.61065        14.72607         1.81156
C         15.62496        16.06985         1.51490
C         14.43791        16.85486         1.54518
C         15.57094        18.89263         0.48619
C         14.42756        18.24267         1.27983
C         15.69787        20.37474         0.78313
C         14.51199        21.10931         0.81386
C         15.72448        23.14297         0.17528
C         14.49164        22.47596         0.42302
C         15.71819        24.51207        -0.22251
C         14.46593        25.18879        -0.30047
C         15.69323        27.37383        -0.81027
C         14.43010        26.63620        -0.56747
C         15.76168        28.79425        -0.33823
C         14.53792        29.60865        -0.38235
C         15.87322        31.65723        -0.01237
C         14.61087        30.97868        -0.19011
C         15.90291        33.03448         0.53583
C         14.58524        33.73674         0.74074
C         15.94586        35.92632         0.90741
C         14.61923        35.22171         0.92857
C         15.92630        37.42938         0.85854
C         14.69451        38.07109         0.23198
C         15.88825        40.29932         0.28790
C         14.65717        39.57822         0.34301
C         15.92179        41.68935         0.05610
C         14.61310        42.35701        -0.18674
C         15.86780        44.51909        -0.87471
C         14.55992        43.77766        -0.62159
C         15.81216        45.97623        -0.46278
C         14.47287        46.70151        -0.47372
C         15.72663        48.83862        -0.71160
C         14.51698        48.13803        -0.67598
C         15.71455        50.25016        -0.60929
C         18.14276        10.81410         0.09873
C         18.08828        12.01899         0.86197
C         16.91500        12.70676         1.07078
C         18.13489        14.68936         2.06506
C         16.83477        13.87002         2.02870
C         18.16151        16.15182         1.72359
C         16.90904        16.72953         1.13929
C         18.19022        18.89986         0.79770
C         16.91720        18.13732         0.61955
C         18.16383        20.29650         0.75134
C         16.94296        21.03960         0.62113
C         18.17712        23.14948         0.14996
C         16.95970        22.45032         0.35272
C         18.18237        24.48533        -0.32204
C         16.95825        25.16662        -0.50411
C         18.27357        27.33119        -0.87897
C         16.96560        26.58743        -0.90978
C         18.31567        28.79804        -0.65424
C         17.07919        29.51089        -0.30380
C         18.34151        31.64533        -0.10302
C         17.09363        30.98271        -0.19688
C         18.42856        32.98257         0.58511
C         17.16905        33.82166         0.48124
C         18.44281        35.96037         0.37067
C         17.20500        35.19458         0.59381
C         18.47603        37.42643         0.47686
C         17.22412        38.16066         0.83156
C         18.46314        40.40835         0.46923
C         17.17390        39.64726         0.62423
C         18.39306        41.78664        -0.06400
C         17.13331        42.41027        -0.11329
C         18.34385        44.60817        -0.59369
C         17.07754        43.91900        -0.11409
C         18.28513        46.01560        -0.83735
C         17.05359        46.73570        -0.73438
C         18.21871        48.85595        -1.07419
C         17.00882        48.13073        -0.81673
C         18.14763        50.34156        -1.11997
C         16.92127        50.99269        -0.57007
C         18.32444        52.88330         0.23560
C         16.98803        52.27536        -0.07222
C         18.26229        54.34270         0.59151
C         20.44701         6.86574        -1.69137
C         20.49226         8.13273        -1.04537
C         19.31281         8.86424        -0.78922
C         20.60648        10.62889         0.39433
C         19.33303        10.09420        -0.09392
C         20.62405        11.83747         1.05918
C         19.36349        12.50676         1.45113
C         20.72109        14.64549         2.01251
C         19.41498        13.89471         2.03054
C         20.70261        16.18343         1.78358
C         19.44106        16.85639         1.44848
C         20.69730        18.95648         1.09621
C         19.43450        18.20033         1.05743
C         20.68424        20.32530         0.99118
C         19.40809        21.05256         0.95913
C         20.72730        23.14929         0.19192
C         19.43294        22.54373         0.61061
C         20.72243        24.46421        -0.35578
C         19.46131        25.17824        -0.46552
C         20.76581        27.25868        -0.64358
C         19.48074        26.54932        -0.60567
C         20.77241        28.73769        -0.68077
C         19.49518        29.47696        -0.60009
C         20.73267        31.60736        -0.63528
C         19.54520        30.91816        -0.39268
C         20.70932        33.08040        -0.61127
C         19.76556        33.79802         0.35065
C         20.83357        35.95440        -0.30457
C         19.60175        35.26638         0.02089
C         20.79803        37.44127        -0.36828
C         19.60070        38.14930         0.13902
C         20.92188        40.37854        -0.17365
C         19.78155        39.62763         0.51212
C         20.82891        41.78072        -0.38265
C         19.59905        42.49067        -0.36898
C         20.76231        44.62339        -1.07487
C         19.55677        43.91304        -0.66922
C         20.69491        46.02903        -1.33882
C         19.48195        46.73709        -1.16181
C         20.67435        48.92091        -1.54638
C         19.41653        48.17403        -1.29192
C         20.69834        50.42482        -1.48494
C         19.39240        51.16680        -1.29768
C         20.69512        53.20107        -0.36728
C         19.37165        52.65183        -0.88317
C         20.69076        54.41711         0.27509
C         19.42148        55.08089         0.62279
C         20.60747        57.16099         1.27193
C         19.43166        56.43400         1.09762
C         20.60708        58.42896         1.89755
C         22.81484         4.23429        -3.01380
C         21.60334         4.92236        -2.72819
C         22.91266         6.82286        -1.85808
C         21.60846         6.16176        -2.07802
C         22.96031         7.87364        -0.79992
C         21.74667         8.67592        -0.58659
C         23.11582        10.42345         0.47812
C         21.83158         9.88389         0.12016
C         23.19844        11.70059         1.19442
C         21.88493        12.45752         1.51669
C         23.15642        14.62118         1.16491
C         21.93270        13.91516         1.68625
C         23.19935        16.12090         1.38844
C         21.98267        16.84645         1.43320
C         23.20415        18.94433         1.27091
C         21.97168        18.24792         1.27437
C         23.22399        20.42464         1.23910
C         21.90403        21.19743         1.21252
C         23.11573        22.96155        -0.34116
C         21.90808        22.42183         0.29489
C         23.13847        24.35727        -0.78264
C         21.95833        25.09051        -0.72864
C         23.19660        27.29329        -1.17079
C         21.90721        26.49855        -1.31133
C         23.21348        28.65596        -1.26175
C         21.94476        29.43217        -1.27621
C         23.18946        31.69725        -1.28771
C         21.91565        30.94358        -1.22217
C         23.21338        33.05547        -1.17904
C         21.95423        33.83423        -1.00451
C         23.29168        35.97748        -0.73752
C         21.98520        35.27934        -0.67007
C         23.37004        37.46449        -0.57197
C         22.07409        38.21122        -0.55607
C         23.35438        40.32701        -0.74539
C         22.13087        39.68588        -0.39796
C         23.38176        41.80148        -0.72774
C         22.06782        42.55289        -0.60704
C         23.23043        44.57759        -1.58741
C         21.98911        43.92863        -1.11809
C         23.19075        46.04051        -1.94341
C         21.85968        46.78477        -1.96904
C         23.14863        48.85276        -1.11618
C         21.95140        48.18515        -1.42433
C         23.14365        50.23391        -0.77563
C         21.99543        51.08828        -1.10337
C         23.17956        53.03771         0.09581
C         21.98136        52.52602        -0.62371
C         23.15255        54.42767         0.53039
C         21.93587        55.09209         0.58726
C         23.18887        57.23557         1.23913
C         21.89516        56.53892         0.86649
C         23.10916        58.58479         1.89492
C         21.78307        59.11605         2.27692
C         22.87603        60.74586         3.76473
C         21.73270        60.26922         3.07546
C         24.05655         4.74902        -2.72921
C         25.47534         6.62543        -1.66956
C         24.20290         6.11409        -2.21712
C         25.54197         7.82399        -0.98058
C         24.30477         8.42705        -0.41472
C         25.58683        10.44039         0.28427
C         24.33454         9.79968         0.11972
C         25.64034        11.79662         0.76470
C         24.46892        12.43591         1.16601
C         25.73204        14.62904         1.26078
C         24.44856        13.87452         1.49405
C         25.65053        16.06013         0.77248
C         24.41103        16.80930         1.21475
C         25.69310        18.93307         1.07229
C         24.42689        18.22914         1.20765
C         25.74483        20.27745         0.76490
C         24.50267        21.07013         0.80348
C         25.73894        23.01379        -0.21597
C         24.49859        22.28345        -0.06266
C         25.77075        24.19998        -1.14845
C         24.42535        24.98442        -1.22721
C         25.71054        27.22029        -1.00698
C         24.44122        26.49671        -1.33277
C         25.72112        28.71070        -0.97746
C         24.47528        29.42987        -1.39843
C         25.69984        31.66608        -1.02818
C         24.45828        30.93163        -1.45377
C         25.77825        33.12051        -1.33430
C         24.46904        33.80446        -1.47427
C         25.75152        36.04891        -1.49997
C         24.44631        35.30646        -1.41386
C         25.78684        37.49824        -1.22659
C         24.59154        38.19919        -0.99071
C         25.74924        40.30894        -1.63967
C         24.53801        39.61467        -1.04860
C         25.78100        41.79075        -1.36643
C         24.58350        42.50429        -1.23289
C         25.75195        44.61408        -1.60330
C         24.54898        43.91152        -1.40227
C         25.78869        46.08291        -1.79734
C         24.46215        46.85339        -1.86248
C         25.65049        48.85846        -0.94806
C         24.44273        48.19200        -1.25956
C         25.62635        50.16367        -0.33505
C         24.27954        50.75011         0.06109
C         25.47242        52.81954         0.92924
C         24.28737        52.25188         0.26215
C         25.53197        54.25942         1.19545
C         24.37441        55.05651         1.01603
C         25.54024        56.94114         2.11389
C         24.38855        56.40592         1.43104
C         25.49710        58.19740         2.74801
C         24.33423        59.08117         2.68179
C         24.09822        60.12096         3.68209
C         26.76710         8.49408        -0.70889
C         28.05306        10.45661        -0.00204
C         26.80727         9.77269        -0.12379
C         28.12685        11.81274         0.33202
C         26.89716        12.52734         0.67008
C         28.11797        14.67804         0.32874
C         26.92490        13.89151         0.81954
C         28.14649        16.09066         0.85970
C         26.97273        16.74790         1.04820
C         28.24495        18.96532         1.21558
C         26.95131        18.20149         1.31245
C         28.19482        20.37911         0.82147
C         26.96977        21.02506         0.61415
C         28.19622        23.09707         0.01864
C         26.95201        22.40830         0.18711
C         28.20701        24.46149        -0.47655
C         27.00893        25.05906        -0.89857
C         28.25893        27.29125        -1.34661
C         26.99336        26.49391        -1.26183
C         28.21793        28.77032        -1.06945
C         27.01309        29.43269        -1.01388
C         28.23626        31.62414        -0.83157
C         26.96813        30.89155        -0.80435
C         28.25523        33.04096        -1.17215
C         26.97721        33.78795        -1.31376
C         28.30641        36.00462        -1.20482
C         27.05264        35.26092        -1.50359
C         28.28113        37.42646        -1.29545
C         27.06177        38.16966        -1.33981
C         28.27478        40.33773        -1.37732
C         27.06263        39.59367        -1.38963
C         28.23504        41.75385        -1.39835
C         27.00877        42.48992        -1.40733
C         28.19569        44.67695        -1.31737
C         26.98667        43.92617        -1.44214
C         28.20579        46.07444        -1.26939
C         26.99797        46.81684        -1.39051
C         28.13667        48.92091        -0.77907
C         26.93645        48.20476        -1.11042
C         28.08377        50.18440        -0.17792
C         26.80433        50.78061         0.07921
C         28.03004        52.80521         1.05836
C         26.77569        52.05062         0.84569
C         27.97125        54.09496         1.58828
C         26.74641        54.83405         1.67944
C         26.72313        56.15336         2.16805
C         29.36156        12.51137         0.40389
C         30.62580        14.60376         0.67335
C         29.41758        13.91696         0.52257
C         30.70400        16.03330         0.78255
C         29.44080        16.82319         0.54080
C         30.70333        18.93856         1.09656
C         29.52049        18.24213         1.02945
C         30.64029        20.39519         1.05259
C         29.42362        21.06679         0.69958
C         30.65859        23.15960         0.25633
C         29.42173        22.45106         0.34002
C         30.65905        24.53008        -0.15466
C         29.45784        25.16846        -0.52906
C         30.71231        27.32698        -0.71628
C         29.57230        26.50571        -1.25284
C         30.63507        28.74241        -0.67110
C         29.44388        29.48443        -0.78548
C         30.57692        31.69542        -0.12989
C         29.43391        30.93705        -0.60828
C         30.66101        33.10810        -0.20726
C         29.58413        33.81442        -0.97583
C         30.76699        36.01234        -0.95438
C         29.50269        35.29840        -0.99892
C         30.80647        37.47665        -0.99846
C         29.58094        38.16594        -1.55763
C         30.74516        40.31807        -1.06195
C         29.54943        39.64620        -1.25539
C         30.79354        41.78756        -1.19042
C         29.49441        42.50800        -1.39620
C         30.70913        44.65952        -0.68101
C         29.42370        43.93555        -0.97515
C         30.73335        46.10632        -0.87173
C         29.49704        46.78498        -1.22117
C         30.68294        48.94483        -0.50392
C         29.45561        48.31813        -1.03242
C         30.56621        50.24808         0.02598
C         29.31331        50.87475         0.19824
C         29.25335        52.16614         0.76443
C         31.89576        16.69382         0.94048
C         33.16884        18.81210         0.39600
C         32.04052        18.17682         1.21713
C         33.60599        20.08116         0.71449
C         31.77558        21.20827         1.16641
C         33.16209        23.13058         0.39323
C         31.87707        22.50615         0.60708
C         33.15855        24.53489         0.13252
C         31.91423        25.23965        -0.12796
C         33.15940        27.38710        -0.27995
C         31.88757        26.63928        -0.33705
C         33.12766        28.87671        -0.23278
C         31.76691        29.43708        -0.03259
C         32.88631        31.40131         1.00178
C         31.65198        30.84283         0.42415
C         32.78327        33.51582         1.20991
C         31.73645        33.93433         0.32446
C         32.97019        36.15828         0.33825
C         31.94632        35.26189        -0.26324
C         33.15076        37.51962        -0.20153
C         31.99167        38.16574        -0.76511
C         33.17309        40.31515        -0.55815
C         32.00806        39.63016        -0.83534
C         33.14726        41.76708        -0.29571
C         31.97069        42.53797        -0.69656
C         33.22250        44.66738        -0.49537
C         31.98480        43.91239        -0.62881
C         33.16177        46.08845        -0.53809
C         31.94669        46.81701        -0.70751
C         31.89493        48.24037        -0.53620
C         34.54442        20.99359         0.15559
C         35.63316        23.18000         0.27251
C         34.43260        22.41956         0.32357
C         35.64158        24.59058         0.34986
C         34.39098        25.23970         0.19248
C         35.58407        27.47041         0.60163
C         34.34654        26.70251         0.28637
C         35.61477        28.95079         0.40916
C         34.35812        29.68916         0.10189
C         35.34053        31.72425         1.33121
C         34.16541        31.00968         0.75852
C         35.30509        33.26350         1.56224
C         34.08466        34.05374         1.23504
C         35.39511        36.25886         1.23770
C         34.12535        35.50357         1.06794
C         35.49227        37.59260         0.62333
C         34.36633        38.19723         0.01771
C         35.68967        40.37049        -0.05561
C         34.49976        39.58418        -0.57526
C         35.71678        41.74922        -0.09653
C         34.47960        42.54968        -0.12522
C         34.44140        43.97222        -0.41487
C         36.86003        25.36890         0.53744
C         38.04448        27.56317         0.91969
C         36.87687        26.74971         0.66895
C         38.00778        28.94786         1.09797
C         36.75460        29.68900         0.99161
C         37.91670        31.85589         1.05977
C         36.66090        31.04391         1.18990
C         37.82121        33.30601         1.48087
C         36.62545        33.98113         1.53197
C         37.94101        36.16523         1.30464
C         36.65683        35.46973         1.55672
C         37.94811        37.51852         1.00183
C         36.76474        38.26130         0.65990
C         36.84263        39.62484         0.32756
C         39.17475        29.72386         1.45770
C         40.31858        31.88354         1.80237
C         39.14445        31.10090         1.52064
C         40.30029        33.25075         1.76178
C         39.09115        34.01743         1.56258
C         39.13689        35.39885         1.45681
O         24.18327        34.63103        -2.66807
O         35.88828        36.13458         2.61374
O         29.34736        17.03566        -0.87835
O         25.24876        14.34830         2.61183
O         27.54313        26.90170        -2.57654
O         12.66508        31.72134        -1.55638
O         20.80420        15.59901         3.12767
O         14.81161        27.08894        -1.93109
O         23.59799         7.46204         0.45586
O         21.64733        26.40090        -2.67761
O         29.22606        33.25396        -2.27030
O         29.63090        47.73153        -2.34329
O         33.31193        28.18981        -1.50245
O         25.27087        46.65199        -3.05307
O         15.19903        46.27413         0.79020
O         24.09523        21.12813         2.21629
O         32.99329        36.13550         1.79623
O         21.22449        37.89331        -1.72631
O         17.05978        16.99516        -0.28769
O         24.40546        25.67460        -2.52849
O         25.59341        27.91737         0.27060
O         26.45095        35.73616        -2.74775
O         31.32051        29.72133         1.35359
O         17.65709        26.90768        -2.15858
O         35.37398        29.51640        -0.93688
O         35.17512        32.30731         2.66232
O         21.12239        28.00734         0.56206
O         18.50369        50.92952        -2.43064
O         22.66763        57.29280        -0.13226
O         15.20837        33.01673         1.84752
O         22.99140        42.40211         0.55954
O         23.75756        22.03566        -1.29817
O         19.35975        12.74601         2.91730
O         23.64505        36.57745         0.56635
O         17.79438        40.34203         1.77736
O         19.30824        22.09384         1.99222
O         14.40035        42.67789        -1.60595
O         24.61716        30.14544        -2.67511
O         20.43000        33.91063         1.58984
O         16.48830        28.89752         0.92835
O         13.27458        28.21386         1.08656
O         32.90738        20.69453         1.80358
O         16.50407        37.91263         2.09594
O         22.59596        11.68667         2.54607
O         34.63852        27.13368         1.68327
O         27.63239        18.65457         2.53330
O         33.62507        42.14342         1.02532
O         23.58813         7.16921        -3.09882
O         29.80145        44.18923         0.42168
O         31.85642        35.34835        -1.69979
O          9.26785        31.11181         1.84206
O         15.05419        18.91346        -0.82232
O         26.09112        31.32531         0.34188
O         21.62152        30.18286        -2.46604
O         22.29492        52.21454        -2.02705
O         20.86974        33.56711        -1.97978
O         24.00843        59.54050         1.29945
O         23.18247        45.05342        -3.01324
O         32.60093        32.36227         1.97183
O          8.57763        29.31201        -1.17435
O         30.37418        42.25452        -2.54350
O         18.05409        15.69447         3.12331
O         25.95160        51.98124         2.06985
O         15.29950        35.54550         2.17696
O         20.73047        49.76055        -2.77277
O         16.67834        13.30256         3.36049
H         17.11276        13.91413         3.99461
O         18.86336        52.15371         1.39670
H         18.24415        52.28321         2.14594
O         34.81666        39.39405        -2.00005
H         34.14870        38.78197        -2.37711
O         32.42111        18.22411         2.62066
H         32.60102        19.16986         2.83716
O         25.54115        40.22894        -3.10246
H         25.71540        39.30357        -3.38112
O         29.72214        38.10676        -3.02535
H         30.39889        38.76361        -3.29504
O         16.88901        44.27934         1.28104
H         17.50007        43.74276         1.82843
O         19.01350        53.43041        -2.03175
H         18.62569        52.81332        -2.69578
O         12.76669        21.12406         2.46993
H         13.43918        20.95846         3.16306
O         27.94294        14.84655        -1.12401
H         28.52826        15.64271        -1.35408
O         21.71472        21.74535         2.54451
H         22.60978        21.87616         2.93763
O         12.58800        20.41063        -1.08994
H         13.43159        19.87681        -1.00828
O         20.22250        39.58911         1.89639
H         19.40749        39.61725         2.45463
O         18.48624        32.51251         1.95046
H         19.27116        33.00892         2.35107
O         14.90140        37.79089        -1.20436
H         14.16054        38.19991        -1.70122
O         11.90426        29.33747        -2.11571
H         12.24670        30.15643        -2.54450
O         23.05511        14.48957        -0.30858
H         23.81005        15.01131        -0.69478
O         25.48569        15.95489        -0.68444
H         26.34006        15.58376        -1.05548
O         24.02056        50.19402         1.40963
H         24.69613        50.61194         2.00474
O         13.52403        42.05259         1.89697
H         12.80335        41.59172         2.37505
O         25.97845        23.63992        -2.47934
H         25.60251        24.28400        -3.12452
O         29.97080        26.14881        -2.60898
H         29.13768        26.07670        -3.13470
O         21.48481        46.94594        -3.36706
H         21.90464        46.20911        -3.86784
O         38.08548        31.98643        -0.40913
H         38.09114        31.08101        -0.78979
O         16.14065        44.48958        -2.28428
H         15.72519        43.66954        -2.64061
H          4.91106        31.27359         1.05398
H          5.00637        33.72193         1.11854
H          7.39111        26.80753         0.66780
H          6.05722        29.08789         0.73512
H          6.26107        35.85214         0.92065
H          7.52081        37.98145         0.72759
H          9.86675        22.50550         0.12319
H          8.61124        24.67175         0.37674
H          8.76903        40.09745         0.43344
H          9.95849        42.14639        -0.08908
H         12.49998        18.58928         2.14354
H         11.14637        20.40379         0.43603
H         11.11688        44.26265        -0.43897
H         12.28142        46.42890        -0.63965
H         14.64890        14.25411         2.06710
H         13.48371        16.34665         1.75622
H         13.57136        48.69137        -0.77721
H         14.76567        50.75846        -0.38183
H         17.20542        10.41256        -0.31426
H         15.98151        12.32596         0.63064
H         16.07287        52.76761         0.29311
H         17.30513        54.79285         0.89742
H         19.46218         6.44003        -1.93599
H         18.34782         8.46481        -1.13476
H         18.47294        56.88995         1.38904
H         19.63709        58.86837         2.17719
H         22.74394         3.22096        -3.43479
H         20.64514         4.43501        -2.95781
H         22.74475        61.57406         4.47572
H         20.75555        60.72520         3.28956
H         24.95659         4.13033        -2.85673
H         26.40707         6.11577        -1.96009
H         26.35302        58.50612         3.36683
H         24.91389        60.39447         4.36654
H         27.70728         8.03998        -1.05622
H         28.97442         9.91754        -0.27014
H         28.90993        54.61141         1.83784
H         27.63598        56.58863         2.59912
H         30.30003        11.93602         0.35896
H         31.55892        14.01977         0.75044
H         31.47131        50.77101         0.36832
H         30.19392        52.68946         0.99146
H         32.82509        16.10385         1.01608
H         33.60717        18.26735        -0.45250
H         34.09493        46.65519        -0.40267
H         32.81649        48.75970        -0.23388
H         35.44092        20.60935        -0.35566
H         36.59159        22.63902         0.26237
H         36.66266        42.27368         0.11418
H         35.38822        44.50861        -0.57385
H         37.80793        24.81290         0.60859
H         39.01379        27.05069         1.02395
H         38.91652        38.03399         0.91215
H         37.78998        40.16065         0.49188
H         40.11187        29.19218         1.68592
H         41.26042        31.35492         2.01322
H         41.23439        33.80956         1.92197
H         40.10855        35.91525         1.44828
