         320
 CSIRO Nanostructure Databank - Neutral Graphene Oxide Data Set
C         30.67112        31.65180         1.88748
C         30.61729        32.89623         1.81008
C         30.42155        36.07711         1.14929
C         30.50763        37.34474         1.04334
C         30.44790        40.26207        -0.33559
C         30.54747        41.43225        -0.80630
C         32.86805        28.81478         0.77572
C         31.94641        29.40668         1.37047
C         32.91342        31.60523         0.79261
C         31.76485        30.70369         2.02580
C         32.99840        33.08200         1.16857
C         31.58985        33.72354         1.05713
C         32.78856        35.99944         0.24374
C         31.48908        35.17763         0.70500
C         32.86400        37.39352         0.94176
C         31.56569        38.16337         0.71127
C         32.76484        40.33166         0.40899
C         31.65597        39.36549        -0.16432
C         32.76401        41.77862        -0.01255
C         31.58116        42.37529        -0.76676
C         32.89303        44.41939        -1.02101
C         31.84272        43.71949        -1.09245
C         35.35150        27.33303        -0.67822
C         35.21977        28.78239        -0.54016
C         34.02039        29.46819         0.12503
C         35.36538        31.64202         0.22033
C         34.24605        30.82588         0.82999
C         35.33891        33.00467         0.23437
C         34.00649        33.75842         0.16344
C         35.27459        35.95028         0.30682
C         34.10703        35.26617         0.41710
C         35.35955        37.44521         0.57117
C         34.04167        38.16612         0.40599
C         35.35067        40.33399         0.57059
C         34.03904        39.60472         0.88235
C         35.32837        41.79478         0.31853
C         34.11265        42.37715        -0.33490
C         35.39302        44.48119        -0.36778
C         33.98503        44.30834        -0.03420
C         35.80045        44.49628        -1.69897
C         37.78245        27.34990        -0.94177
C         36.49558        26.82200        -0.75260
C         37.75467        28.77210        -0.80003
C         36.55001        29.46147        -0.54697
C         37.91148        31.56142        -0.01702
C         36.60781        30.84957        -0.02860
C         37.89110        33.08016         0.19766
C         36.55362        33.79252        -0.19131
C         37.76198        36.01952        -0.34748
C         36.61993        35.25102         0.35900
C         37.75220        37.38829        -0.43011
C         36.43106        38.14067        -0.29836
C         37.65450        40.47447        -0.53620
C         36.59431        39.60339         0.13552
C         37.77850        41.81264         0.17964
C         36.51625        42.48525         0.39069
C         37.78818        44.69116         0.50284
C         36.44831        43.98964         0.60715
C         37.65827        46.12281         0.39754
C         36.20684        44.17455        -2.83700
C         40.28434        24.57713        -0.97237
C         39.24667        25.21910        -1.13439
C         40.26597        27.39434        -0.83190
C         39.03002        26.67016        -1.40884
C         40.30577        28.74702        -0.90268
C         39.03306        29.53008        -1.16940
C         40.30664        31.59644        -0.65750
C         39.13550        30.92097        -0.58939
C         40.37775        33.06100        -0.23761
C         39.01549        33.69393        -0.63364
C         40.28395        35.99618        -0.88496
C         38.97864        35.23995        -0.73158
C         40.29378        37.49825        -0.90307
C         38.94099        38.19585        -0.86431
C         40.29541        40.42592        -0.57569
C         38.96819        39.72097        -0.76067
C         40.27535        41.94038        -0.27998
C         38.96619        42.50183         0.29130
C         40.28259        44.56264         0.74297
C         38.97671        43.94199         0.56742
C         40.47405        46.00727         1.17253
C         38.69940        47.04578         0.34234
C         40.37621        49.02017         0.45263
C         39.29960        48.16745         0.28790
C         42.66582        24.59760         0.12466
C         41.70765        24.95949        -0.92729
C         42.58650        27.39350         0.28874
C         41.34070        26.63981        -0.10577
C         42.65862        28.83575         0.10103
C         41.67066        29.41241        -0.90934
C         42.75458        31.72908        -0.42413
C         41.61487        30.96368        -1.08674
C         42.79699        33.08330        -0.53132
C         41.55168        33.83736        -0.92236
C         42.82091        36.09030        -0.60239
C         41.53937        35.30356        -0.38474
C         42.80037        37.46846        -0.58874
C         41.55223        38.20558        -0.56924
C         42.70655        40.23337         0.16349
C         41.54495        39.61735        -0.30498
C         42.78164        41.74319         0.03716
C         41.46144        42.34748         0.59180
C         42.75949        44.55375         0.80743
C         41.45744        43.85150         0.71562
C         42.78254        46.01059         0.44467
C         41.45978        46.72713         0.19564
C         42.91957        48.54027         0.61910
C         41.54108        48.26542         0.47333
C         43.57482        25.25901         0.67251
C         44.79538        27.38280         1.44127
C         43.63815        26.69332         0.87260
C         44.89852        28.91083         1.20711
C         43.76851        29.55342         0.49242
C         45.14913        31.61922         0.09273
C         43.78736        31.06852         0.45291
C         45.28718        33.11078        -0.22020
C         43.96878        33.89651        -0.03741
C         45.34740        35.99285        -0.17193
C         44.10499        35.28470        -0.72373
C         45.47375        37.47470        -0.58583
C         44.09526        38.31745        -0.58458
C         45.13259        40.13659         0.98083
C         43.89011        39.33708         0.56696
C         45.20207        41.63024         0.95366
C         44.01425        42.43619         0.59988
C         45.31614        44.61498         0.96609
C         44.02878        43.78161         0.78864
C         45.16367        45.66042        -0.16493
C         44.02455        46.64618        -0.19209
C         44.07508        48.01638         0.56218
C         47.25368        27.36196         1.38439
C         46.14454        26.82643         1.48603
C         47.50498        28.67794         0.67138
C         46.30157        29.57355         1.24892
C         47.67282        31.61177         0.47990
C         46.37168        30.87317         0.46524
C         47.67614        33.01387         0.49055
C         46.36135        33.77553         0.65463
C         47.68694        35.90604         0.79223
C         46.38848        35.28245         0.34144
C         47.80855        37.38362         0.53822
C         46.63152        38.23310         0.11566
C         47.64914        40.06219         0.38646
C         46.45675        39.38053         1.13885
C         47.61112        41.58648         0.13632
C         46.58152        42.30453         1.05594
C         47.71123        44.44998         0.34039
C         46.56682        43.79016         0.72105
C         46.41801        45.36316        -2.45920
C         45.83219        45.47540        -1.34582
C         49.96906        28.68761         0.10557
C         48.86391        29.35390         0.91333
C         50.14343        31.55850         0.41696
C         48.86166        30.84071         0.49398
C         50.03176        32.92444        -0.25310
C         49.00585        33.73697         0.57648
C         50.19876        35.90761         0.13057
C         48.85174        35.17555         0.04523
C         50.25242        37.17100         1.02476
C         48.99578        37.99852         0.75962
C         50.19761        40.07612        -0.00918
C         49.02635        39.51730         0.83575
C         50.26590        41.57799         0.05818
C         49.00256        42.33244         0.34545
C         50.25349        44.30277        -0.13299
C         48.86977        43.75661        -0.33479
C         50.90109        29.29848        -0.45818
C         52.18578        31.54254        -1.04478
C         51.38874        30.56913        -0.71953
C         52.38778        32.85982        -0.92489
C         51.38061        33.66011        -0.45887
C         52.59927        35.86106         0.30281
C         51.44427        35.11700        -0.22790
C         52.67259        37.04887         0.62281
C         51.56490        37.98792         0.86631
C         52.60881        40.21977        -0.16362
C         51.53735        39.39691         0.39629
C         52.64138        41.43468        -0.41103
C         51.61397        42.34290         0.27984
C         51.34717        43.72868        -0.22633
O         50.78015        36.03249        -1.20053
O         36.41558        39.95409         1.52454
O         51.68116        39.06415         1.80737
O         37.04395        40.77690        -1.86974
O         34.14823        29.45634        -1.27774
O         45.86672        37.38525        -1.98366
O         31.16908        34.14197        -0.23973
O         33.57843        33.65502        -1.17007
O         44.52016        28.33086         2.50522
O         38.95237        29.71536        -2.66846
O         42.36424        28.88918        -2.16860
O         40.28407        46.32282         2.33772
O         44.85134        40.88407         2.20814
O         37.48134        30.85190         1.21667
O         39.58063        37.88591        -2.13059
O         39.72629        40.22976        -1.89323
O         39.56235        35.54079        -2.04457
O         45.81352        30.76614        -0.89134
O         42.87828        45.63200         1.83592
O         32.40082        41.38158         1.33498
O         36.41615        33.88534        -1.62137
H         35.44267        33.89027        -1.82070
O         33.01706        37.10678         2.35568
H         33.07718        37.99305         2.79734
O         43.51262        38.57276         1.72780
H         43.48012        39.18931         2.49117
O         33.53991        44.53531         1.23015
H         34.29906        44.56369         1.86206
O         49.23580        29.32052         2.29731
H         48.40174        29.42571         2.82301
O         46.05223        33.60116         2.05759
H         46.64955        34.22447         2.54417
O         33.51007        33.26143         2.48736
H         33.04687        32.63518         3.09221
O         49.46671        32.65265        -1.54547
H         49.01008        33.47238        -1.85788
O         35.87337        38.18244        -1.62976
H         36.53926        38.55231        -2.24993
O         41.01992        46.49019        -1.13001
H         41.73965        46.75562        -1.74885
O         32.14433        38.93524        -1.42615
H         32.14946        37.94559        -1.49790
O         42.86804        42.00265        -1.38574
H         43.34307        41.25407        -1.81214
O         43.50125        31.49503         1.82533
H         42.53075        31.44126         1.96938
O         48.45447        35.12714        -1.33779
H         49.18176        35.55193        -1.86083
O         40.69340        33.01275         1.17047
H         39.86153        33.19157         1.68256
O         34.65378        30.55294         2.19328
H         35.63653        30.58076         2.23937
O         41.38291        28.65938        -3.20305
H         41.06119        29.57616        -3.41793
O         32.62452        36.15525        -1.15740
H         32.87710        35.25321        -1.53771
O         37.84457        30.60846        -2.92701
H         38.22187        31.52064        -2.76135
O         47.31205        28.50237        -0.70596
H         48.16594        28.23344        -1.11176
O         46.61420        29.85186         2.62239
H         45.99236        29.31245         3.17123
O         32.34613        31.48407        -0.45682
H         32.57776        32.31098        -0.99623
O         45.42042        45.24885         2.24465
H         44.54259        45.64883         2.47072
O         41.24541        41.79743         1.91105
H         41.92008        42.16364         2.52120
O         49.92937        39.69306        -1.38215
H         50.65348        40.04928        -1.94195
O         49.20073        42.65791         1.73924
H         49.39019        41.81644         2.22702
O         43.70356        46.94222        -1.54050
H         44.52953        46.97499        -2.07543
O         40.70203        26.21317         1.09184
H         41.35381        25.73539         1.64970
O         44.11037        39.12892        -1.77037
H         44.46118        38.56490        -2.50037
O         32.29200        30.75721         3.30451
H         33.09283        30.18788         3.35126
O         38.15893        33.25930         1.59454
H         37.65504        32.56864         2.08272
O         39.08767        26.82170        -2.84046
H         39.00238        27.77930        -3.06737
O         48.63426        43.63721        -1.71848
H         47.98840        44.32356        -2.02693
O         44.25352        35.11201        -2.14904
H         44.95224        35.72748        -2.46693
O         47.10649        41.77286        -1.18271
H         47.67852        41.28640        -1.81325
O         45.72569        33.22201        -1.57875
H         46.11362        32.35133        -1.83468
O         46.97910        42.12648         2.43581
H         46.68273        42.91381         2.93957
O         50.24295        36.71130         2.39714
H         50.50637        37.47264         2.96074
O         50.85343        31.52468         1.60409
H         50.61602        30.68781         2.07991
O         49.46980        33.84491         1.93327
H         49.95153        33.01895         2.18209
O         42.27465        25.02634        -2.16480
H         41.58755        25.11798        -2.85571
O         43.73989        34.17991         1.36118
H         43.76161        33.31655         1.85064
O         47.74425        35.70600         2.21935
H         48.66279        35.92217         2.53153
O         36.96517        35.24095         1.76025
H         36.79423        36.15410         2.10636
O         46.67383        39.05314         2.50093
H         46.16254        39.71545         3.02659
O         47.23947        39.25603        -0.81174
H         46.60641        38.01769        -2.13440
O         36.00581        44.19874         1.98110
H         36.64933        43.77430         2.58762
O         41.36484        35.36327         1.05250
H         42.17732        34.96307         1.46701
O         35.75382        37.55091         1.98582
H         34.98398        37.18243         2.48759
O         34.23518        42.22270        -1.70557
H         35.04594        42.65340        -2.07805
O         33.93827        39.61133         2.34491
H         34.85202        39.42046         2.66793
O         47.83290        45.78985         0.41546
H         47.09589        46.17596         0.93506
O         51.92045        42.38054         1.64457
H         52.68991        42.96837         1.78668
O         37.85125        41.80548        -2.51526
H         37.19578        42.53750        -2.72522
O         36.40080        46.58999         0.29368
H         36.40200        47.55546         0.13081
O         40.40969        42.64208        -1.52338
H         39.81353        42.19444        -2.17431
O         49.23521        39.91057         2.20370
H         48.44213        39.60040         2.71096
O         38.78780        33.19223        -1.97924
H         39.17951        33.86535        -2.59252
O         41.73488        31.22452        -2.52015
H         42.60978        30.87262        -2.80329
O         41.41458        33.90511        -2.33946
H         41.57484        33.00057        -2.70534
