         349
 CSIRO Nanostructure Databank - Neutral Graphene Oxide Data Set
C          1.17272         2.12438        -0.91900
C          1.04422         3.36883        -0.38305
C          2.42780         1.43434        -0.93377
C          2.21910         4.03329         0.30138
C          1.04674         6.38156        -0.22999
C          1.10977         7.73453        -0.35643
C          2.15454         5.58446         0.33774
C          2.31130         8.50882        -0.07512
C          1.21701        10.74540        -0.66523
C          1.23447        12.10192        -0.69035
C          2.36487         9.96626        -0.21864
C          2.39614        12.85250        -0.07842
C          1.38222        15.12816        -0.07297
C          1.44974        16.51312        -0.12313
C          2.50539        14.33252        -0.36813
C          2.65521        17.14825        -0.48510
C          2.75116        18.59226        -0.51588
C          3.60327         2.08642        -0.57409
C          3.53629         3.58184        -0.38256
C          4.84767         1.42802        -0.53208
C          4.78963         4.16471         0.24494
C          3.46414         6.32835         0.46718
C          3.46625         7.78972         0.21638
C          4.75037         5.55952         0.46534
C          4.73078         8.49144         0.45498
C          3.57591        10.67441        -0.06363
C          3.67025        12.08219        -0.28007
C          4.81700         9.97688         0.29132
C          4.90790        12.71659        -0.49629
C          3.72399        14.94382        -0.72590
C          3.77956        16.35309        -0.81857
C          4.92785        14.09797        -1.13344
C          5.00580        17.03997        -1.27720
C          3.92309        19.23279        -0.79121
C          5.11800        18.49903        -1.12061
C          6.05878         2.02107        -0.09487
C          6.01698         3.43803         0.32071
C          7.23660         1.23868        -0.27173
C          7.20769         4.17951         0.59485
C          5.96259         6.27187         0.52187
C          5.97849         7.71634         0.26213
C          7.19306         5.59647         0.53475
C          7.27948         8.45961         0.31168
C          6.11986        10.63962         0.04718
C          6.11802        11.99928        -0.35252
C          7.30723         9.93030         0.27420
C          7.41739        12.65824        -0.59959
C          6.27396        14.81058        -0.98066
C          6.31553        16.24505        -1.35478
C          7.43132        14.13133        -0.75426
C          7.56982        17.00404        -1.26885
C          6.34483        19.11960        -1.28158
C          7.56823        18.38321        -1.35004
C          8.50847         1.51459         0.29072
C          8.48887         3.56803         0.84916
C          9.80103         1.18560        -0.11780
C          9.71882         4.13712         0.53434
C          8.43863         6.33089         0.60157
C          8.47677         7.70143         0.65233
C          9.68947         5.59602         0.29957
C          9.71757         8.42359         1.10395
C          8.59422        10.56711         0.33126
C          8.68823        11.95489        -0.18572
C          9.71064         9.89854         0.78166
C          9.90976        12.73646         0.13293
C          8.77578        14.77672        -0.83489
C          8.84122        16.26131        -1.11150
C          9.94093        14.14784        -0.16351
C         10.02873        17.01588        -0.65425
C          8.87128        19.14452        -1.50614
C         10.07755        18.44054        -0.92015
C         10.97454         1.94956         0.25061
C         10.95249         3.39192         0.45385
C         12.23229         1.32004         0.13569
C         12.18207         4.11453         0.38683
C         10.95834         6.37350         0.13981
C         10.98162         7.78480         0.56776
C         12.25150         5.58467        -0.00808
C         12.20628         8.48335         0.68451
C         10.95407        10.64931         1.18159
C         10.98399        12.09121         0.71074
C         12.23489         9.87748         0.89301
C         12.19450        12.86141         1.00086
C         11.07362        14.92632         0.13586
C         11.09125        16.36057        -0.06062
C         12.26550        14.28020         0.63128
C         12.22177        17.17840         0.54161
C         11.25621        19.12596        -0.76838
C         12.41509        18.51842        -0.15211
C         13.45354         2.01268         0.28502
C         13.42423         3.44845         0.40815
C         14.70010         1.35352         0.10516
C         14.66345         4.18680         0.52095
C         13.45507         6.32116         0.52138
C         13.44303         7.69643         0.61877
C         14.68083         5.57038         0.59583
C         14.71319         8.42034         0.43399
C         13.55030        10.54791         1.21096
C         13.52445        12.07791         1.14326
C         14.68816         9.91508         0.41966
C         14.73162        12.82209         0.82221
C         13.48361        14.96280         0.75101
C         13.52482        16.40757         0.62309
C         14.72757        14.22742         0.85115
C         14.68546        17.10595         0.81312
C         13.59309        19.18258         0.01013
C         14.64574        18.61676         0.94967
C         15.93704         2.01955         0.19192
C         15.95578         3.43147         0.77037
C         17.11596         1.36798        -0.19973
C         17.17128         4.21081         0.30849
C         15.97254         6.28116         0.94030
C         15.98940         7.74159         0.57987
C         17.18431         5.56040         0.38199
C         17.20864         8.46832         0.65875
C         16.00460        10.63106         0.35923
C         15.98247        12.12946         0.49161
C         17.24374         9.90577         0.63997
C         17.25052        12.82824         0.66633
C         15.97928        14.92597         0.78501
C         15.95362        16.38778         0.99444
C         17.20794        14.23334         0.70637
C         17.22965        17.17631         0.94877
C         15.98082        19.30591         0.80664
C         17.20429        18.65806         0.77238
C         18.39520         2.01060        -0.23366
C         18.45751         3.40498         0.34810
C         19.57298         1.37065        -0.55000
C         19.65507         4.18495        -0.13465
C         18.34744         6.41896        -0.07803
C         18.44079         7.76804         0.59120
C         19.66519         5.66104        -0.12509
C         19.68869         8.45351         0.74952
C         18.46351        10.60640         0.80558
C         18.48180        12.07955         0.74193
C         19.66254         9.88125         0.97592
C         19.67877        12.77247         0.80680
C         18.45519        14.97438         0.38295
C         18.45595        16.46631         0.48254
C         19.76581        14.18588         0.27587
C         19.71081        17.21287         0.57807
C         18.46118        19.32308         0.67319
C         19.71019        18.62056         0.67926
C         20.88659         2.09795        -0.75556
C         20.95191         3.47429        -0.12790
C         22.14705         1.32202        -0.47318
C         22.12877         4.17455        -0.12117
C         20.88232         6.25144         0.57493
C         20.90957         7.75393         0.64505
C         22.17650         5.60206         0.14111
C         22.23184         8.32440         1.11366
C         20.92062        10.58934         1.29366
C         20.92267        12.09440         1.21608
C         22.24405         9.84878         1.23432
C         22.25256        12.81084         1.18224
C         20.96126        14.95469         0.82136
C         20.94221        16.44644         0.80073
C         22.28032        14.24816         0.79040
C         22.20785        17.17397         0.52588
C         20.97222        19.30895         0.79896
C         22.20939        18.63966         0.74482
C         23.34152         1.98198        -0.42003
C         23.36975         3.48557        -0.63647
C         24.61077         1.29292        -0.37706
C         24.62977         4.15290        -0.15474
C         23.36670         6.31204         0.09601
C         23.42222         7.74150         0.38663
C         24.63502         5.59438        -0.01884
C         24.58669         8.46665         0.26154
C         23.48200        10.60227         0.90262
C         23.50138        12.02163         0.98285
C         24.65245         9.90265         0.50901
C         24.70168        12.72544         0.79272
C         23.45406        14.92115         0.75054
C         23.49037        16.38732         0.49616
C         24.72838        14.19983         1.13881
C         24.72220        17.14053         0.75032
C         23.46407        19.27612         0.78851
C         24.69780        18.55490         0.75470
C         25.80854         1.98127        -0.36362
C         25.79642         3.42694        -0.15585
C         27.08151         1.29791        -0.49991
C         27.06710         4.09528         0.14547
C         25.81778         6.30964         0.05126
C         25.80449         7.77372        -0.31518
C         27.08554         5.61881         0.27108
C         27.11073         8.48813        -0.06415
C         25.87710        10.61316         0.31088
C         25.91032        12.03313         0.49353
C         27.11665         9.90619         0.02441
C         27.14454        12.76459         0.38204
C         25.98132        14.91730         0.69468
C         25.96442        16.40000         0.84700
C         27.14257        14.20999         0.47824
C         27.23730        17.20023         0.43493
C         25.93169        19.28480         0.60896
C         27.12006        18.67848         0.25023
C         28.27933         1.96329        -0.53434
C         28.30231         3.43441        -0.35950
C         29.54949         1.32936        -0.84944
C         29.58998         4.16866        -0.28885
C         28.35349         6.34900         0.09923
C         28.32872         7.72782        -0.06008
C         29.65462         5.57415         0.30046
C         29.60171         8.43441        -0.34884
C         28.33366        10.65172        -0.06355
C         28.36673        12.06197         0.13735
C         29.58773         9.96289        -0.41640
C         29.58880        12.79024        -0.11351
C         28.47653        14.95011         0.42961
C         28.30061        16.34682        -0.11481
C         29.55847        14.18082        -0.29577
C         29.16460        16.81108        -1.06253
C         28.29990        19.48031        -0.04968
C         29.25101        19.02952        -0.93752
C         30.73050         1.98728        -0.82188
C         30.89543         3.38930        -0.28482
C         31.92649         4.22359        -1.00233
C         30.86527         6.30512        -0.24588
C         30.90656         7.77181         0.07639
C         31.88697         5.60714        -0.90786
C         32.10763         8.51835        -0.40739
C         30.87860        10.63873        -0.35124
C         30.94403        12.12170        -0.12465
C         32.06629         9.89237        -0.50599
C         31.89089        12.78124        -1.09728
C         30.60319        14.84588        -1.00271
C         30.46444        16.24129        -1.32918
C         31.71421        14.06668        -1.48788
C         31.50734        17.08331        -1.74635
C         30.61575        19.39769        -1.15857
C         31.55707        18.50416        -1.65413
O         10.11217         6.06851        -1.05393
O         27.13382         4.71667         1.45406
O          6.67148         7.99538        -0.99257
O          2.60181         6.05428         1.65134
O         29.54863         9.07201        -1.62796
O          9.10082        15.28674        -2.18180
O         19.71636         4.96771        -1.42765
O         21.61706        10.18364         2.52404
O          8.46134         2.32147         1.45811
O          8.28021        12.00546        -1.59669
O         16.71452        16.75085         2.23541
O          5.51876        16.53258        -2.56189
O         11.90153        17.46418         1.90868
O         28.87488         4.12702        -1.55017
O         14.44621         9.25971        -0.82955
O         18.65136         3.20195         1.74579
O         28.82082        17.96408        -1.76504
O          4.74697         9.35319         1.64545
O         20.81529        15.67737         2.08169
O         21.52344        12.66185         2.44002
O         12.81025        12.60061         2.32601
O         22.80001        16.77503        -0.75873
O         26.94250        16.87175         1.83535
O         18.24788        15.79148        -0.83842
O         16.01878        11.45790        -0.85947
O         29.85295         5.42605         1.73961
H         30.09265         6.32565         2.08314
O         18.00960         6.81116        -1.44707
H         18.42553         6.14017        -2.04082
O         16.10017         3.32072         2.21882
H         17.08667         3.13715         2.35605
O         31.49190        12.31589         1.23606
H         31.31923        13.24757         1.49344
O         14.16015        18.89936         2.29242
H         13.27547        18.41127         2.36728
O         10.88052        10.72492         2.66134
H         11.53345        11.42042         2.93447
O         25.65325         7.80404        -1.78395
H         25.78838         8.72899        -2.08063
O          8.76569        20.46575        -0.96552
H          8.82256        20.40489         0.01006
O         28.94426        15.02323         1.81258
H         28.33078        15.64823         2.27295
O         22.40214         7.80115         2.48320
H         21.99339         8.47885         3.07834
O         30.89481         7.89441         1.57099
H         31.82796         7.93605         1.87247
O         20.90189         2.37586        -2.22105
H         20.29550         3.13705        -2.37335
O         20.66976         5.82470         1.96187
H         21.36611         6.27780         2.50281
O         16.11270         6.19074         2.39590
H         16.16434         5.22110         2.60922
O          4.78071        13.85503        -2.56382
H          4.96046        14.71886        -3.01022
O         23.35938         3.68306        -2.08652
H         22.55856         3.20552        -2.42477
O         24.76070        14.27784         2.60462
H         25.53608        13.76601         2.91816
O          3.47514         4.17139        -1.71902
H          4.23750         3.83659        -2.23643
O          9.74858         8.24688         2.56172
H         10.24446         9.01497         2.94046
O          2.15758        12.80305         1.37874
H          2.13354        11.85785         1.64335
O          2.20588         3.55248         1.65657
H          2.42841         4.31835         2.23955
O         20.06350        13.99827        -1.13791
H         19.50718        14.64438        -1.63721
O         31.35784         3.24308         1.09255
H         30.99114         4.00105         1.61450
O         12.55153         5.51679        -1.44154
H         11.68113         5.55780        -1.90690
O         13.92572        10.22451         2.58877
H         13.41774        10.81779         3.18575
H          0.28572         1.60294        -1.30814
H          0.04394         3.81473        -0.28040
H          2.45202         0.36796        -1.20244
H          0.13922         5.85919        -0.56619
H          0.22853         8.25917        -0.75206
H          0.32340        10.21488        -1.02437
H          0.35047        12.65908        -1.03431
H          0.44769        14.63773         0.23342
H          0.57165        17.12216         0.13435
H          1.85002        19.17292        -0.27101
H          4.87291         0.36416        -0.81745
H          3.97691        20.33081        -0.76132
H          7.14425         0.35436        -0.92226
H          6.41101        20.21684        -1.23548
H          9.94880         0.34914        -0.81798
H          9.03975        19.27240        -2.61316
H         12.26312         0.23901        -0.06678
H         11.31201        20.18123        -1.07823
H         14.68864         0.29025        -0.18632
H         13.71871        20.20527        -0.38053
H         17.03923         0.32969        -0.56658
H         15.96537        20.40757         0.78632
H         19.54834         0.30433        -0.83152
H         18.47400        20.42297         0.63834
H         22.10847         0.22306        -0.41707
H         20.96294        20.40230         0.92179
H         24.61373         0.19260        -0.41420
H         23.50664        20.37413         0.84610
H         27.06411         0.20695        -0.64637
H         25.87067        20.38300         0.58138
H         29.52283         0.27445        -1.16425
H         28.43245        20.43137         0.48704
H         31.65280         1.45131        -1.09407
H         32.78726         3.73636        -1.48341
H         32.71607         6.18122        -1.34947
H         33.08138         8.00866        -0.41941
H         33.01698        10.43066        -0.63230
H         32.75847        12.21818        -1.46793
H         32.42948        14.53433        -2.17971
H         32.47106        16.60497        -1.98076
H         30.94707        20.41349        -0.89632
H         32.55401        18.92957        -1.85376
