         232
 CSIRO Nanostructure Databank - Neutral Graphene Oxide Data Set
C        -11.25002         0.74289        -0.37397
C        -10.07177         1.57586        -0.40930
C         -8.78815         0.93410        -0.03656
C         -7.54524         1.58573        -0.49661
C         -6.38637         0.77693        -0.92372
C         -5.18265         1.47985        -1.54700
C         -3.88963         0.64166        -1.76892
C         -2.58125         1.50496        -1.80447
C         -1.27396         0.73123        -1.69448
C          0.03176         1.37297        -1.30209
C          1.34203         0.71658        -1.77303
C          2.57806         1.04609        -0.80731
C          4.00246         0.65652        -1.33177
C          5.23396         1.36698        -0.91076
C          6.50557         0.76952        -1.06556
C          7.81422         1.50687        -0.90172
C          8.91754         0.62872        -0.25169
C          9.83948         1.19837         0.84663
C         10.60824         0.24069         1.66723
C        -10.06890         2.92673        -0.65690
C         -8.83077         3.68679        -0.57104
C         -7.56721         2.93932        -0.70706
C         -6.34129         3.63065        -1.04266
C         -5.17070         2.96452        -1.40818
C         -3.91026         3.67463        -1.36868
C         -2.65356         3.01911        -1.81124
C         -1.43051         3.88576        -1.79088
C          0.04117         2.32903        -0.32905
C          1.22960         3.18129        -0.03714
C          2.56995         2.46701        -0.18657
C          3.82219         3.29261        -0.12332
C          5.13448         2.73406        -0.52139
C          6.34586         3.57140        -0.38204
C          7.69281         2.91126        -0.29947
C          8.67958         3.45018         0.75514
C          9.56439         2.50652         1.40422
C         -8.80017         5.03951        -0.37062
C         -7.48002         5.65112         0.01752
C         -6.34324         5.07888        -0.81559
C         -4.99429         5.74849        -0.61388
C         -3.80357         4.92048        -0.77652
C         -2.50673         5.41104        -0.24099
C         -1.27492         4.92246        -0.91427
C          0.06581         5.60430        -0.69316
C          1.17803         4.70497        -0.06028
C          2.48502         5.43543         0.07727
C          3.68089         4.75632         0.10028
C          4.87795         5.42707         0.63501
C          6.22735         4.92335         0.27830
C          7.35535         5.52701         1.04669
C          8.42526         4.76023         1.39455
C         -7.41186         7.15382         0.09870
C         -6.20527         7.75891         0.29020
C         -4.95232         7.00348         0.16476
C         -3.77278         7.49371         0.63314
C         -2.49935         6.74502         0.45265
C         -1.22977         7.49977         0.48488
C         -0.02849         6.91125         0.08611
C          1.19899         7.59654         0.29037
C          2.45124         6.88732         0.27256
C          3.61967         7.60787         0.54755
C          4.82835         6.91548         0.94365
C          6.09804         7.64553         1.16567
C          7.25339         6.93993         1.36837
C         -6.07645         9.17170         0.63899
C         -4.93683         9.64912         1.17063
C         -3.75598         8.75586         1.46454
C         -2.45104         9.48412         1.35540
C         -1.25862         8.86665         0.97343
C         -0.04556         9.59709         1.02764
C          1.19142         8.98704         0.71416
C          2.37920         9.71585         0.79795
C          3.67056         9.10360         0.35556
C          4.87558         9.75657         0.98458
C          5.99887         9.08615         1.31440
C        -11.20779        -0.60118        -0.10103
C         -9.98878        -1.32335         0.16906
C         -8.75007        -0.51587         0.29249
C         -7.42245        -1.20715         0.27983
C         -6.22495        -0.58514        -0.35408
C         -5.01348        -1.24217        -0.37392
C         -3.81394        -0.63605        -0.92847
C         -2.64135        -1.37424        -0.99426
C         -1.37358        -0.75135        -1.45866
C         -0.08148        -1.44164        -1.22409
C          1.11918        -0.80400        -1.68171
C          2.16223        -1.64278        -2.01775
C          4.20793        -0.53179        -2.01791
C          5.41453        -1.31788        -1.90360
C          6.70324        -0.58845        -1.69561
C          7.74850        -1.43764        -0.99571
C          8.80698        -0.85527        -0.34076
C          9.79798        -1.67855         0.35216
C         10.64384        -1.07478         1.37289
C         -9.95099        -2.69709         0.32969
C         -8.72504        -3.42299         0.51905
C         -7.43758        -2.68369         0.46302
C         -6.21858        -3.43199        -0.01852
C         -4.92286        -2.62717         0.28013
C         -3.72473        -3.43789        -0.14482
C         -2.60902        -2.77650        -0.61474
C         -1.35402        -3.52711        -0.79032
C         -0.08207        -2.79214        -0.90732
C          1.12949        -3.55097        -0.91102
C          2.23638        -3.00153        -1.59200
C          3.41180        -3.78155        -1.71778
C          5.40996        -2.69850        -2.00731
C          6.43645        -3.57782        -1.51474
C          7.73620        -2.89708        -1.27044
C          8.88899        -3.72656        -0.70110
C          9.81524        -3.04256         0.19904
C         -8.64242        -4.77570         0.78581
C         -7.37352        -5.44785         0.91850
C         -6.19101        -4.83567         0.54933
C         -4.92081        -5.53396         0.56598
C         -3.72046        -4.84844         0.20099
C         -2.51413        -5.59258         0.16785
C         -1.28805        -4.95443        -0.35053
C          0.01726        -5.47488         0.17222
C          1.25580        -4.84589        -0.34185
C          2.49428        -5.50368        -0.31373
C          3.64061        -4.95518        -0.99183
C          4.95380        -5.63785        -1.02003
C          6.24207        -4.95276        -1.24384
C          7.44276        -5.74016        -0.92581
C          8.65263        -5.16444        -0.59041
C         -7.33748        -6.83591         1.52657
C         -6.18907        -7.68130         0.95341
C         -4.88402        -6.91563         0.86749
C         -3.65760        -7.61443         0.90106
C         -2.46690        -6.94095         0.55115
C         -1.17755        -7.70770         0.36000
C          0.03898        -6.86124         0.70282
C          1.36514        -7.54903         0.83752
C          2.60255        -6.81804         0.36588
C          3.82419        -7.63733         0.03603
C          4.95562        -6.99605        -0.68286
C          6.14517        -7.80823        -0.79310
C          7.36190        -7.17699        -0.88910
C         -6.03089        -9.00491         1.65910
C         -4.84063        -9.63342         1.75473
C         -3.59992        -9.01735         1.30556
C         -2.40416        -9.69991         1.34177
C         -1.14472        -9.08901         0.98077
C          0.05008        -9.74809         1.06318
C          1.36042        -9.05047         0.92098
C          2.56440        -9.76252         0.45017
C          3.70939        -9.12063         0.06195
C          4.87856        -9.87259        -0.35506
C          6.03576        -9.25359        -0.70579
O         -0.11444        -5.74487         1.61938
O         -1.37793        -4.64686        -1.77437
O         -5.79107         5.89953        -1.85879
O          0.62292         5.99360        -1.97674
H          0.46721         5.25801        -2.61175
O          4.67312         5.87620         1.99604
O          3.79464         9.35772        -1.09722
H          2.99052         8.99238        -1.52529
O          3.29969         2.48783         1.07402
O          2.35830         0.16674         0.32438
H          2.85375         0.55237         1.08428
O          3.67627        -6.94509         1.33838
O         -1.05352         2.56089         0.44674
H         -0.79440         3.25764         1.10332
O         -7.20417        -6.71093         2.94963
H         -6.43670        -6.13284         3.14024
O          3.21107        -1.13367        -2.76842
O         -2.67838         2.27761        -3.07116
O         -6.35252        -3.53335        -1.45815
H         -5.58736        -4.03870        -1.80561
O          0.96216         3.95307         1.18002
O          8.86690        -3.29106        -2.10940
O          1.68910         1.12477        -3.09685
H          1.06426         0.69779        -3.71971
O         -1.25306        -0.17700        -2.83198
O         -3.99224         0.09275        -3.09973
H         -3.88574         0.83417        -3.73567
O         -0.49198         3.57626        -2.72532
H         -0.88892         2.86760        -3.29445
O         -6.58454        -7.98109        -0.42145
H         -5.88915        -8.54655        -0.81777
O         -7.18908         5.15523         1.37265
H         -7.91452         5.44510         1.96475
O          7.18991        -0.43593        -3.06940
H          7.81135         0.33609        -3.08694
O         -3.87561         8.34897         2.87432
H         -3.22718         7.62796         3.02573
O         -2.45763         5.46950         1.23773
O          8.83125         3.69174        -0.71835
O         -4.71533        -2.47222         1.70140
H         -5.52725        -2.04584         2.07702
O         -8.79254         0.48994         1.37243
O         -1.03663        -7.92862        -1.08421
H         -1.83146        -8.40863        -1.39828
O          8.31121         1.76687        -2.25364
H          9.16738         2.24318        -2.13356
O         -6.23437         0.93204        -2.38803
O          4.33701        -3.32639        -2.64499
O          6.37061         4.82580        -1.17383
O         10.22866         1.14265        -0.59319
O         -7.19667        -1.81697         1.61753
O          1.57482        -8.19360         2.12341
H         11.27389        -1.75314         1.96740
H         11.19543         0.64124         2.50653
H          9.82565         2.68623         2.45657
H          9.22891         5.18332         2.01601
H          8.17004         7.46348         1.67887
H          6.87651         9.62719         1.69981
H          4.84084        10.85083         1.09662
H          2.34845        10.77992         1.07443
H         -0.06339        10.64683         1.35405
H         -2.40758        10.51688         1.73453
H         -4.86077        10.70607         1.46734
H         -6.94826         9.82705         0.49220
H         -8.34319         7.73363         0.19359
H         -9.73117         5.62007        -0.28116
H        -11.01125         3.46495        -0.83962
H        -12.22045         1.21649        -0.58555
H        -12.14620        -1.17609        -0.11139
H        -10.89124        -3.26848         0.28566
H         -9.56158        -5.36585         0.92075
H         -8.30302        -7.36490         1.33295
H         -6.94477        -9.50157         2.01794
H         -4.77796       -10.63457         2.20840
H         -2.38845       -10.73777         1.70953
H          0.07094       -10.79319         1.41291
H          2.52987       -10.86256         0.40904
H          4.82590       -10.97078        -0.31842
H          6.93039        -9.84874        -0.94070
H          8.29508        -7.75787        -0.85512
H          9.47262        -5.80931        -0.23900
H         10.46975        -3.65415         0.83870
