         252
 CSIRO Nanostructure Databank - Neutral Graphene Oxide Data Set
C         30.66597        31.88370         1.75199
C         30.70681        33.15754         1.76581
C         30.63852        36.19977         0.85082
C         30.45548        37.35497         0.40786
C         30.54429        40.47731         0.83466
C         30.67892        41.53839         1.47535
C         32.97988        28.94501         1.38703
C         31.95038        29.61783         1.60825
C         33.10872        31.75468         1.90084
C         31.72407        31.00156         1.67974
C         33.09497        33.25108         1.47152
C         31.77223        33.99458         1.36411
C         32.85214        35.92929         0.05725
C         31.71696        35.28847         0.90201
C         32.91038        37.45023         0.15436
C         31.63000        38.19088         0.06651
C         32.97307        40.33172         0.61662
C         31.65724        39.70097         0.29869
C         33.01896        41.64835         1.17529
C         31.85308        42.33171         1.61911
C         33.16038        44.32801         1.89799
C         32.09277        43.69581         1.97648
C         35.50329        27.32863         0.27578
C         35.40546        28.72606         0.50986
C         34.35226        29.43805         1.24958
C         35.40474        31.68309         0.54076
C         34.35607        30.98616         1.34101
C         35.43858        33.05623         0.38749
C         34.28274        33.88945         0.81260
C         35.34191        35.93223        -0.08937
C         34.17673        35.26129         0.27098
C         35.35130        37.39899        -0.10703
C         34.11209        38.14606         0.16397
C         35.43071        40.28240         0.42517
C         34.15901        39.58944         0.38235
C         35.53581        41.63582         0.73470
C         34.37174        42.32294         1.41848
C         35.70112        44.50764         1.39028
C         34.35443        43.85652         1.08955
C         35.72430        45.96412         0.95067
C         37.59771        27.26466        -0.81783
C         36.33868        26.67327        -0.37904
C         37.71504        28.69272        -0.44974
C         36.57248        29.38992         0.10692
C         37.74599        31.57638        -0.48847
C         36.49245        30.87033        -0.04334
C         37.79987        33.04811        -0.41370
C         36.60434        33.76154        -0.13895
C         37.69160        35.87531        -0.86991
C         36.56022        35.18300        -0.24077
C         37.67318        37.39847        -0.91396
C         36.53357        38.08757        -0.27576
C         37.93663        40.20412        -0.04917
C         36.68504        39.43605         0.38749
C         37.81321        41.67859        -0.25902
C         36.73737        42.41125         0.46307
C         37.89770        44.54788        -0.10108
C         36.80883        43.80095         0.54214
C         37.86334        45.99084        -0.23233
C         36.70057        46.50776         0.42417
C         39.95893        24.54402         0.12911
C         38.97815        25.05301        -0.44384
C         40.20775        27.16173        -0.61856
C         38.93034        26.44527        -0.86784
C         40.20050        28.59331        -0.74343
C         38.98605        29.31884        -0.57600
C         40.25485        31.47784        -0.79015
C         39.01697        30.79974        -0.17625
C         40.25606        33.00302        -0.71885
C         39.04605        33.69083        -0.75610
C         40.26259        35.90559        -1.31503
C         38.98365        35.13278        -1.12557
C         40.23456        37.33859        -0.78078
C         38.98545        38.12724        -1.25410
C         40.28986        40.30363        -1.16201
C         39.09460        39.53899        -0.70412
C         40.22285        41.77718        -1.47659
C         38.97446        42.42189        -0.85305
C         40.17388        44.56463        -1.10773
C         39.03348        43.86908        -0.61210
C         39.94182        45.89233        -1.45332
C         38.85034        46.66413        -0.96262
C         40.21772        48.72479        -1.09600
C         39.16295        48.06870        -1.07900
C         42.49540        24.44820         0.65862
C         41.28273        25.05341         0.27813
C         42.68343        27.10508        -0.22403
C         41.34594        26.44205        -0.14524
C         42.80674        28.54586        -0.65129
C         41.53751        29.33386        -1.02841
C         42.83256        31.48361        -0.35657
C         41.52596        30.69324        -0.31466
C         42.80067        32.98343        -0.65456
C         41.53727        33.63254        -1.12600
C         42.79369        35.87810        -1.02206
C         41.57399        35.16315        -1.34542
C         42.77579        37.35668        -1.08525
C         41.49228        38.11853        -1.14840
C         42.74185        40.30156        -1.11541
C         41.50987        39.62102        -1.09092
C         42.77122        41.76908        -1.27427
C         41.51917        42.54569        -1.23534
C         42.78417        44.70024        -1.02547
C         41.51420        43.92940        -1.21829
C         42.86798        46.18982        -0.96964
C         41.83653        47.03961        -1.43672
C         42.75880        48.93665        -0.41805
C         41.61611        48.40712        -1.06062
C         43.54235        25.19300         0.75878
C         45.00700        27.35356         0.81420
C         43.88647        26.45996         0.40735
C         45.40157        28.47185        -0.27672
C         44.15785        29.32738        -0.56301
C         45.25005        31.61546         0.06649
C         44.13524        30.79777        -0.33317
C         45.25715        33.00176        -0.14384
C         44.12516        33.65015        -0.82378
C         45.10450        35.98632        -0.15552
C         44.07066        35.19951        -0.94052
C         45.16724        37.41228        -0.67375
C         44.02561        38.10953        -0.87413
C         45.30274        40.32691        -0.83084
C         43.96067        39.59718        -0.55828
C         45.22637        41.78899        -0.41437
C         44.05277        42.54102        -0.95157
C         45.28489        44.62528        -0.40293
C         43.93670        43.99318        -0.70929
C         45.20340        46.12420        -0.07667
C         44.00928        46.83531        -0.37256
C         43.78256        48.22114        -0.22863
C         47.23206        27.56673         1.47298
C         46.31292        26.74484         1.23653
C         47.73975        28.67394         0.71919
C         46.79567        29.03910        -0.22384
C         47.78772        31.71591         0.59169
C         46.41768        31.16291         0.92263
C         47.80834        33.09122         0.20404
C         46.48559        33.78689         0.17819
C         47.72953        35.98237        -0.27780
C         46.46011        35.28194         0.09500
C         47.62465        37.28064        -0.65416
C         46.43430        38.09839        -0.38660
C         47.74824        40.42961        -0.02216
C         46.49010        39.57295        -0.21901
C         47.24491        41.49113         1.02287
C         46.19889        42.37619         0.32898
C         47.50252        44.50271         0.91693
C         46.07919        43.84737         0.68031
C         47.39453        45.82286         0.66555
C         46.41655        46.62177         0.35534
C         50.26075        28.88788         0.68588
C         48.93672        29.46843         1.15088
C         50.23171        31.66336         0.49381
C         48.97887        30.97310         0.67481
C         50.23858        33.09941         0.33927
C         49.01568        33.80629         0.11225
C         50.35142        36.08623        -0.03088
C         49.04574        35.26743        -0.24320
C         50.61510        37.68295        -0.02306
C         49.39887        38.53125        -0.22972
C         49.87506        40.18625         1.48686
C         49.00364        39.65520         0.42800
C         49.50304        41.35071         2.16753
C         48.37505        42.20935         1.74913
C         49.82900        44.20807         2.04450
C         48.48553        43.75818         1.71028
C         51.32451        29.52730         0.66937
C         52.63086        31.75528         0.65119
C         51.50596        30.93472         0.56194
C         52.56062        33.01782         0.68451
C         51.46532        33.86370         0.48969
C         52.48801        36.09067         1.06236
C         51.49642        35.28377         0.53377
C         52.43904        37.31820         1.43142
C         51.43294        38.22395         1.14885
C         52.04630        40.30893         2.41569
C         51.15173        39.50646         1.70544
C         52.37268        41.55003         2.52550
C         51.34419        42.42902         2.89058
C         50.89695        43.66795         2.37417
O         36.79651        31.12999        -1.48767
O         41.63371        34.18986        -2.45056
O         40.87648        46.49603        -2.30080
O         44.95916        28.68487        -1.64709
O         34.89604        30.12568         2.39688
O         39.46661        35.53828        -2.45981
O         46.30285        38.72718         0.95997
O         31.52668        39.12623        -1.01682
O         46.19376        30.51024         1.93376
O         43.71721        42.19999        -2.34709
O         47.85235        43.05309         2.84074
O         46.43263        34.64195         1.41581
O         42.94518        27.46989        -1.63524
O         50.14539        41.73023         3.36942
O         44.45123        34.33525        -2.05761
O         37.80182        42.04546        -1.68444
O         37.23170        36.60929        -2.06177
O         38.20759        26.83266        -2.03315
O         34.06141        33.95691         2.31732
O         42.70839        32.51351         0.72187
O         42.10273        37.70100        -2.39682
O         39.06730        39.73415         0.78661
O         49.95286        35.61020        -1.34336
O         48.64319        37.99573        -1.29351
O         48.08243        41.12289        -1.23002
H         47.39839        40.93202        -1.91644
O         32.47208        35.61241        -1.31784
H         31.74122        36.21213        -1.58317
O         44.46445        36.15280         1.14152
H         44.96890        35.60633         1.79406
O         45.59231        40.29971        -2.25040
H         44.93724        40.90255        -2.69360
O         40.14323        31.29313        -2.21635
H         39.33714        31.75102        -2.53534
O         41.44827        30.31470         1.08554
H         41.77902        31.07803         1.61529
O         40.17899        37.18578         0.65384
H         40.11338        38.07822         1.06633
O         39.05951        38.29447        -2.67138
H         38.82681        37.42619        -3.08203
O         34.06985        44.02748        -0.28016
H         34.25935        44.95766        -0.53128
O         40.04718        41.86844        -2.92063
H         39.11524        41.61906        -3.11770
O         43.74589        39.63757         0.88369
H         44.55106        39.24629         1.31254
O         33.21482        31.75677         3.32355
H         33.79777        32.50905         3.57885
O         47.07771        29.92109        -1.20856
H         46.32402        29.86288        -1.85458
O         34.63346        42.21462         2.83583
H         34.80698        41.27396         3.04817
O         41.66091        29.51430        -2.44106
H         41.92762        28.64882        -2.82562
O         38.99477        30.86658         1.26837
H         39.78593        30.38242         1.61080
O         48.92941        29.47955         2.56602
H         49.75597        29.89008         2.89263
O         36.85989        39.11523         1.80938
H         37.82868        39.02351         1.97077
O         46.07310        44.48339        -1.61041
H         45.59007        44.90090        -2.35384
O         45.38925        43.96148         1.92729
H         45.98454        43.61198         2.63323
O         36.01250        44.40830         2.75529
H         36.84135        44.89530         2.93615
O         46.54547        40.80918         2.08747
H         46.52707        41.40812         2.86551
O         44.47194        28.15285         1.88013
H         45.16842        28.77268         2.20728
O         51.43689        37.86373        -1.19748
H         50.96241        37.44432        -1.94966
