         280
 CSIRO Nanostructure Databank - Neutral Graphene Oxide Data Set
C         30.42821        31.82747         1.87338
C         30.48068        33.05993         1.61173
C         30.41659        36.11591         0.83152
C         30.41257        37.35873         0.57839
C         30.40854        40.34852        -0.52431
C         30.38048        41.58558        -0.88864
C         32.76290        28.94532         1.57701
C         31.70939        29.56500         1.82645
C         32.71856        31.66637         1.19285
C         31.53241        30.97876         1.66871
C         32.72731        33.06268         0.95918
C         31.54006        33.85203         1.13557
C         32.77157        35.97318         0.64592
C         31.51627        35.25215         0.87049
C         32.76077        37.48285         0.66848
C         31.47229        38.24809         0.39654
C         32.74324        40.49379        -0.04528
C         31.46328        39.57907        -0.04461
C         32.78728        41.38352        -1.34137
C         31.47212        42.34552        -1.22596
C         32.93840        44.31496        -1.43702
C         31.85371        43.68300        -1.38666
C         35.51622        27.34537         0.97407
C         35.25339        28.73166         1.16438
C         34.06636        29.40683         1.23735
C         35.22630        31.58821         0.51111
C         33.94191        30.86910         0.84285
C         35.25050        33.07748         0.45565
C         33.89687        33.75947         0.25542
C         35.21406        35.94734         0.03171
C         33.93692        35.26784         0.48778
C         35.30727        37.45393         0.25606
C         34.04386        38.21886         0.46480
C         35.31548        40.35063        -0.17394
C         34.03164        39.70252         0.19433
C         35.36195        41.64910        -0.92934
C         34.11255        42.16976        -1.54596
C         35.48947        44.30024        -1.92335
C         34.14485        43.62576        -2.07675
C         35.78539        45.42755        -2.70335
C         37.58544        27.32636        -0.19386
C         36.46317        26.67101         0.52334
C         37.65693        28.78919         0.17743
C         36.60744        29.45946         1.09612
C         37.68766        31.58614         0.10093
C         36.49158        30.89471         0.70187
C         37.75760        33.02409         0.62177
C         36.43482        33.74207         0.38751
C         37.75685        35.91992        -0.04941
C         36.48903        35.24376         0.57469
C         37.82467        37.38301         0.37966
C         36.50231        38.09616         0.12740
C         37.82294        40.23917        -0.55516
C         36.53839        39.51379        -0.32487
C         37.88366        41.76090        -0.78826
C         36.54273        42.52749        -0.50744
C         37.96450        44.46481        -1.41877
C         36.66451        43.83494        -1.28392
C         38.08646        45.55672        -2.33015
C         36.88111        46.01542        -2.90411
C         40.15168        24.56506        -0.78097
C         39.10479        25.21941        -0.69389
C         40.18430        27.32521        -0.31727
C         38.85282        26.65656        -0.62522
C         40.22214        28.64720         0.41748
C         38.97606        29.48546         0.21290
C         40.23243        31.59889         0.48606
C         38.99754        30.85033         0.30069
C         40.27290        32.98452         0.44814
C         39.00990        33.71077         0.02778
C         40.26548        35.85196         0.16744
C         39.06061        35.20290         0.23833
C         40.34992        37.30975        -0.27818
C         39.04718        38.05901        -0.16540
C         40.23527        40.27723         0.31225
C         39.02943        39.51251        -0.05444
C         40.38513        41.69461        -0.26798
C         39.05540        42.50206        -0.10480
C         40.33100        44.59692        -0.37649
C         39.16630        43.93576        -0.68128
C         40.81697        45.98700        -0.84672
C         39.85621        46.85675        -1.64977
C         40.69784        48.78050        -0.69078
C         39.89148        48.21332        -1.58981
C         42.74619        24.55447        -0.79364
C         41.46112        24.98769        -0.16573
C         42.62435        27.30422        -0.51704
C         41.48221        26.57068        -0.32833
C         42.66537        28.75734        -0.22658
C         41.48795        29.41027         0.10246
C         42.78258        31.51948         0.75125
C         41.48501        30.80472         0.59173
C         42.76270        33.03112         1.04699
C         41.50345        33.74749         0.55350
C         42.82661        35.89159         0.12271
C         41.51566        35.11931         0.33370
C         42.74296        37.37286         0.48954
C         41.55170        38.03714         0.30603
C         42.73793        40.24201         0.84243
C         41.46079        39.47009         0.63885
C         42.69966        41.73396         0.74113
C         41.54712        42.42452         0.36073
C         42.77049        44.62823         0.53007
C         41.39861        43.92405         0.53091
C         42.85915        46.17111         0.63893
C         41.43330        46.68739         0.37608
C         42.64291        48.77479         1.12647
C         41.65275        48.54670         0.16739
C         43.78298        25.22271        -0.87911
C         45.13583        27.39660        -0.80913
C         43.87428        26.68696        -1.16478
C         45.14378        28.74904        -0.42765
C         43.93867        29.46226        -0.17119
C         45.20571        31.56936         0.26241
C         44.01857        30.86213         0.23584
C         45.29184        32.97879         0.83436
C         44.01738        33.73213         0.60703
C         45.32514        35.89807         0.68424
C         43.98745        35.21379         0.87277
C         45.26878        37.36556         0.95570
C         43.97848        38.10297         0.77632
C         45.24663        40.28524         0.68934
C         43.99807        39.48766         0.78238
C         45.19037        41.77979         0.89264
C         43.88007        42.39725         1.16276
C         45.07715        44.53854         1.73228
C         43.92807        43.86223         1.06251
C         44.90406        46.00942         2.09356
C         43.51695        46.65923         1.96755
C         43.46397        48.17703         1.85009
C         47.61318        27.38061        -0.97437
C         46.45384        26.90572        -1.01323
C         47.73610        28.68194        -0.09371
C         46.47004        29.48806        -0.53507
C         47.68115        31.71555        -0.43403
C         46.52793        30.85711         0.16290
C         47.73377        33.09184         0.20674
C         46.56578        33.74985         0.48680
C         47.83794        35.94402         0.77708
C         46.50843        35.21332         0.64830
C         47.78621        37.44399         0.54261
C         46.56100        38.14804         0.97111
C         47.71100        40.34910         0.77106
C         46.55536        39.62562         0.82074
C         47.73067        41.87714         0.62521
C         46.44834        42.55090         1.13716
C         47.67011        44.68299         1.67789
C         46.40535        43.86291         1.51690
C         47.30419        46.11155         1.63377
C         46.22424        46.63538         1.90865
C         50.26842        28.96881        -0.60420
C         48.95944        29.52008        -0.33393
C         50.31762        31.60770        -0.37603
C         48.96827        30.89374        -0.36661
C         50.24176        33.12952        -0.45302
C         49.08380        33.78679         0.30297
C         50.22181        36.04018        -0.07943
C         48.91206        35.26706        -0.10676
C         50.08151        37.51750        -0.39161
C         48.88152        38.17318         0.19328
C         50.23671        40.40024         0.21555
C         48.97934        39.61497         0.55627
C         50.26930        41.89778         0.48688
C         49.03132        42.43654         1.25498
C         50.11458        44.63502         0.72597
C         48.97605        44.02516         1.40156
C         51.36286        29.47544        -0.90610
C         52.57092        31.79375        -1.30220
C         51.36242        30.90780        -1.42153
C         52.46554        33.02681        -1.19766
C         51.39471        33.84719        -0.67476
C         52.43967        36.24374        -0.98829
C         51.49575        35.29129        -0.39723
C         52.43902        37.48124        -0.99725
C         51.23991        38.34156        -0.92258
C         52.03328        40.79587        -1.25818
C         51.23464        39.79516        -0.71243
C         51.94131        42.06538        -1.33086
C         51.31876        42.79900        -0.22513
C         50.86861        44.19174        -0.15667
O         37.14731        28.36699        -1.12062
O         39.27163        46.13743        -2.70541
O         45.96469        37.68396         2.23370
O         37.15206        39.58309        -1.67048
O         51.55006        42.25505         1.09390
O         35.10140        41.42339        -2.33997
O         51.14487        35.68438         0.98450
O         45.22292        41.18592        -0.49373
O         34.31662        31.00996        -0.58099
O         34.86132        40.39554         1.20425
O         33.50038        37.98337         1.82968
O         39.57276        27.39303        -1.64531
O         48.59470        44.36152         2.74670
O         39.25089        40.06110         1.37602
O         50.18931        37.84010        -1.83228
O         43.77581        44.17929        -0.40408
O         44.89314        44.99643         3.12498
O         41.92461        39.79029         1.99088
O         50.09290        39.72770         1.51578
O         42.18930        30.80671         1.91190
O         32.55983        41.39468         1.04510
H         33.24134        41.21103         1.73192
O         50.86441        30.94024        -2.71775
H         51.52575        30.57739        -3.34075
O         48.44907        35.26864        -1.46823
H         48.66687        36.12622        -1.89224
O         38.03150        37.45415         1.83777
H         38.35098        38.36429         2.05512
O         43.10109        35.82051        -1.29530
H         42.37198        36.30447        -1.75713
O         40.29736        28.31586         1.83083
H         40.52033        29.12982         2.33203
O         33.62104        33.59695        -1.18157
H         33.73076        32.62933        -1.37463
O         46.60699        29.68902        -1.96732
H         46.73264        28.80671        -2.38289
O         38.94033        33.57653        -1.42843
H         39.79617        33.88060        -1.79848
O         49.08745        41.91574         2.57504
H         49.97608        42.09361         2.94972
O         47.47202        32.07481        -1.81499
H         47.35807        31.24855        -2.34186
O         37.92809        32.96291         2.05385
H         37.58697        33.81660         2.42276
O         42.72118        33.13450         2.51568
H         42.17622        32.36831         2.82680
O         38.78473        42.59288         1.30195
H         39.47084        43.17553         1.72548
O         37.39717        31.62029        -1.31895
H         37.25380        30.69743        -1.62494
O         43.67669        35.43394         2.27651
H         44.33365        34.94336         2.81589
O         37.67005        35.95570        -1.48888
H         37.69283        35.02425        -1.81508
O         43.70090        26.88206        -2.58557
H         44.33239        26.29957        -3.05701
O         43.76372        46.65327        -0.35031
H         43.50788        46.26915        -1.22170
O         40.91431        44.10031         1.91961
H         41.50987        43.59593         2.51601
O         47.79949        42.16798        -0.78848
H         46.92386        41.91818        -1.17577
O         47.67479        28.26422         1.23259
H         48.58029        28.15465         1.58768
O         33.86782        43.54340        -3.46997
H         34.11122        44.39939        -3.88512
O         35.17125        35.82768        -1.41483
H         34.65240        35.01607        -1.64819
O         50.89748        31.37103         0.92548
H         50.44084        31.97263         1.56352
O         45.41835        32.80929         2.31574
H         44.49221        32.73328         2.67449
O         40.57477        46.59484         1.43835
H         41.06593        46.69578         2.28866
O         36.51274        35.36148         2.01907
H         36.85868        36.25506         2.27361
O         40.70055        41.53107        -1.66975
H         39.86286        41.61008        -2.19481
O         42.70917        46.23934         3.05990
H         43.22817        46.31663         3.88960
O         37.19899        29.39034         2.42691
H         36.77463        30.06284         2.99976
O         49.46742        33.66408         1.69595
H         50.11141        34.38754         1.89889
O         38.11117        41.89265        -2.21449
H         37.50314        41.25409        -2.66144
O         40.63182        37.19123        -1.73725
H         39.77752        36.94852        -2.16456
O         32.60465        40.52450        -2.44801
H         32.94813        40.96008        -3.25655
O         41.46287        24.72106         1.20968
H         41.50630        23.75433         1.35569
O         46.89197        30.61883         1.54530
H         46.57392        31.38223         2.09120
O         48.24242        35.85029         2.16245
H         47.56430        36.32945         2.69251
O         36.26608        42.79118         0.86630
H         37.11384        42.96965         1.34701
O         41.86254        45.68912        -1.81273
H         41.42403        45.43914        -2.65550
