         320
 CSIRO Nanostructure Databank - Neutral Graphene Oxide Data Set
C         30.34400        31.64019        -0.31541
C         29.32917        32.28036         0.08011
C         30.55966        36.19423        -1.26483
C         30.60323        37.40624        -0.96646
C         30.43346        40.22404         0.50470
C         30.37039        41.40999         0.84038
C         32.65383        29.03283         0.19220
C         31.66730        29.52598        -0.38667
C         32.76152        31.45651        -1.23104
C         31.43061        30.90448        -0.67493
C         32.71814        33.00234        -1.40439
C         31.44162        33.79652        -1.53739
C         32.45918        35.48389        -0.00347
C         31.43921        35.08709        -1.07837
C         32.37710        36.91448         0.46838
C         31.49759        37.88882         0.07823
C         32.82630        40.03623         1.00688
C         31.51902        39.24859         0.66427
C         32.79356        41.55600         1.15772
C         31.43900        42.33145         1.21360
C         32.72829        44.28192         1.15537
C         31.57727        43.76712         0.89083
C         35.39650        27.50880         0.44791
C         35.19293        28.86178        -0.15267
C         34.00154        29.66006         0.42921
C         35.22742        31.60175        -0.60323
C         33.92069        31.03280        -0.28659
C         35.26955        33.05647        -1.01909
C         33.97005        33.78574        -1.14008
C         35.25441        35.85101        -0.21643
C         33.92880        35.09498        -0.39067
C         35.31293        37.33545         0.00804
C         34.37435        37.96529         0.76811
C         35.27984        40.21496         0.20651
C         34.26820        39.44327         1.08206
C         35.33030        41.65695         0.71057
C         33.97884        42.37432         0.57319
C         35.31422        44.51319         1.40024
C         34.02545        43.81262         1.11103
C         35.33281        45.98386         1.09705
C         37.63710        27.65639         1.44949
C         36.42114        26.98655         0.88631
C         37.65076        29.02764         0.70613
C         36.52497        29.59642         0.20553
C         37.76576        31.65553        -0.52195
C         36.49046        31.10712         0.07319
C         37.73961        33.00199        -1.26473
C         36.52029        33.82785        -0.89430
C         37.78178        35.95535        -0.64287
C         36.52594        35.18771        -0.68303
C         37.81217        37.32379        -0.55262
C         36.50764        38.11101        -0.58517
C         37.90085        40.28994        -0.04215
C         36.63671        39.42720         0.23700
C         37.88469        41.77240         0.29749
C         36.59709        42.45148         0.68500
C         37.73738        44.75668         0.35605
C         36.44780        43.95987         0.40844
C         37.63225        46.33330         0.16659
C         36.27904        46.66669         0.72131
C         40.14826        25.16022         2.51616
C         39.07967        25.63871         2.11279
C         40.20386        27.75832         1.86535
C         38.94767        26.90353         1.29323
C         40.20829        29.17780         1.23261
C         38.92353        29.82797         0.74979
C         40.23697        31.68342        -0.33708
C         38.97698        31.08336        -0.09002
C         40.25163        32.86202        -1.31085
C         39.03341        33.69572        -0.92081
C         40.32670        35.85528        -0.82846
C         39.04569        35.15534        -0.62749
C         40.30097        37.25130        -0.94965
C         39.13867        38.09311        -0.40291
C         40.28842        40.55171        -0.68952
C         39.01803        39.68514        -0.90683
C         40.30216        42.05996        -0.44779
C         39.00145        42.66499        -0.02963
C         40.27937        44.75446         0.26418
C         38.93981        44.06711         0.09836
C         40.64080        46.04299        -0.42660
C         38.73320        47.04504         0.90849
C         40.41927        48.95765         0.11492
C         39.49236        48.07698         0.47969
C         42.75363        25.02401         2.51328
C         41.49119        25.66174         2.33461
C         42.66491        27.43273         0.92367
C         41.49173        26.95257         1.74394
C         42.78645        28.94124         0.72609
C         41.56755        29.83857         0.90288
C         42.77902        31.52988        -0.59428
C         41.48115        30.90235        -0.18552
C         42.75929        33.06055        -0.60070
C         41.59421        33.67155        -1.41024
C         42.76431        35.83338        -1.00319
C         41.53359        35.14584        -1.06341
C         42.77387        37.24748        -1.05519
C         41.52894        37.83651        -1.28299
C         42.86374        40.57999        -0.77227
C         41.49658        40.08179        -1.07757
C         42.86417        41.87798         0.02096
C         41.50116        42.43876         0.52845
C         42.85925        44.70547         0.96383
C         41.50971        43.98276         0.68084
C         42.87664        46.20472         0.68371
C         41.78805        46.84220         0.16658
C         43.00576        48.81220         0.10242
C         41.68726        48.31639        -0.01155
C         43.76390        25.64344         2.01079
C         45.23293        27.27801         0.59315
C         44.01949        26.77223         1.30312
C         45.27617        28.85715         0.82282
C         43.97901        29.51402         0.40046
C         45.34615        31.64875        -0.06436
C         44.12007        30.80101        -0.40697
C         45.28076        33.18117        -0.13774
C         44.13145        33.61590        -1.07293
C         45.29317        35.94863        -0.93091
C         44.06985        35.15681        -1.33772
C         45.27400        37.31854        -0.90879
C         43.96880        38.07098        -0.55558
C         45.29332        40.13837        -0.87992
C         44.02568        39.59563        -0.85615
C         45.24374        41.94419         1.08701
C         44.05563        42.56546         0.59347
C         45.40134        44.65762         0.74675
C         44.06903        44.03232         0.26047
C         45.39969        46.22198         0.36132
C         44.21920        46.93929         1.06662
C         44.06680        48.37121         0.59853
C         47.60133        27.57936         1.20238
C         46.58865        26.88803         1.11576
C         47.85736        29.05082         1.07237
C         46.57338        29.48828         0.22428
C         47.81232        31.80652         0.26073
C         46.52121        31.00174         0.14435
C         47.77979        32.95171        -0.78353
C         46.56167        33.83695        -0.62302
C         47.79388        35.94233        -0.91943
C         46.55198        35.18665        -0.90916
C         47.81045        37.31727        -0.83518
C         46.56490        38.09327        -1.16416
C         47.80707        40.27235        -0.38537
C         46.51415        39.40017        -0.37130
C         47.75221        41.49242         0.63984
C         46.51390        42.40001         0.62853
C         48.00328        44.41648         0.81590
C         46.60914        43.85518         0.18447
C         47.81542        45.89319         0.70456
C         46.79908        46.59132         0.77893
C         50.42997        29.21071         1.07816
C         49.13648        29.49071         0.37735
C         50.33892        31.73019         0.07579
C         49.15986        31.04745         0.21675
C         50.35902        32.90959        -0.91822
C         49.08687        33.71266        -0.67061
C         50.26860        36.01631        -1.14035
C         49.06098        35.18824        -0.75803
C         50.13766        37.10806        -0.04950
C         48.98553        38.04059        -0.33821
C         50.22269        39.97179         0.70051
C         49.01676        39.38304        -0.05164
C         50.20269        41.47994         0.79016
C         49.11258        42.21884         0.51011
C         50.52369        44.18740         0.66842
C         49.19203        43.73845         0.15328
C         51.53088        29.75962         0.89675
C         52.78656        31.88267         0.01165
C         51.67383        31.24385         0.79922
C         52.76132        32.98632        -0.53763
C         51.65945        33.80812        -1.03101
C         52.64401        36.36525        -1.11693
C         51.61742        35.29876        -1.18146
C         52.62247        37.60187        -1.12918
C         51.82028        38.79743        -1.03137
C         52.59192        40.12122         0.95982
C         51.61186        39.49728         0.14143
C         52.71413        41.26243         1.43499
C         51.63690        42.24448         1.65262
C         51.54285        43.55095         0.96827
O         33.38019        37.21074         1.41495
O         38.39087        40.75818         1.25088
O         42.02569        33.58652        -2.83332
O         42.02821        30.73350        -1.58148
O         34.69957        35.01569         0.85150
O         36.04402        41.92477         1.93323
O         44.05930        35.33759        -2.86038
O         40.28318        46.24643        -1.57533
O         41.50377        39.02882        -1.98179
O         32.17781        41.98030         2.40083
O         39.42946        30.07385         2.10656
O         50.69588        36.98973         1.01745
O         51.70872        34.41711        -2.35212
O         43.02133        41.88187        -1.48367
O         32.01369        39.35666         2.01561
O         40.60867        44.55646         1.68868
O         39.08164        34.14697         0.45574
O         35.37827        31.97068        -2.02222
O         49.18450        34.51314         0.53851
O         33.50585        33.61807        -2.51760
O         45.55756        41.31700        -1.46971
H         44.70592        41.74205        -1.75900
O         48.02939        40.82507        -1.68832
H         47.77744        40.14624        -2.35512
O         46.59403        38.42600        -2.57963
H         46.44825        37.59887        -3.08989
O         34.61425        39.63583         2.46738
H         33.87809        39.25773         2.99903
O         42.37491        26.95572        -0.44398
H         43.24430        26.88088        -0.91558
O         46.72990        28.99956        -1.11966
H         46.04689        29.45943        -1.67395
O         49.16081        43.86128        -1.26562
H         49.95472        43.41703        -1.63052
O         37.70709        46.64139        -1.20520
H         36.87251        46.37281        -1.63998
O         38.62928        39.71803        -2.27681
H         39.43036        39.56454        -2.82197
O         36.26082        38.38637        -1.98930
H         36.36774        37.55616        -2.49875
O         33.63520        42.49063        -0.81860
H         34.31636        43.05882        -1.25239
O         45.08551        33.66704         1.21560
H         45.91139        33.44153         1.71112
O         30.55595        33.38131        -2.46806
H         30.73816        32.45994        -2.73910
O         51.26605        42.33291         2.97098
H         50.66512        43.09480         3.09898
O         34.25312        29.80358         1.81512
H         33.56134        30.37128         2.21341
O         41.93311        30.60768         2.08508
H         41.09225        30.89243         2.51746
O         35.06322        28.81598        -1.55631
H         35.70334        28.17033        -1.91931
O         47.67621        32.39445        -2.10816
H         46.80014        31.95696        -2.19026
O         43.86763        44.25481        -1.13954
H         44.71182        44.04485        -1.60497
O         47.77146        40.89527         1.97486
H         47.86103        41.64453         2.60692
O         41.41007        34.67740        -3.57035
H         42.18532        35.27415        -3.73777
O         50.27861        32.24129        -2.18920
H         50.71161        32.80340        -2.86954
O         40.04319        27.92144         3.27443
H         39.15584        28.31627         3.44643
O         48.08184        44.02503         2.18035
H         47.27000        44.37974         2.62516
O         35.74618        44.30720         2.72976
H         34.97511        44.32704         3.33227
O         36.83390        38.91858         1.57160
H         36.84185        39.68753         2.18933
O         45.24684        46.41954        -1.01604
H         45.96106        45.93217        -1.48499
O         45.53395        44.51496         2.16305
H         44.81168        45.01618         2.61789
O         46.58579        44.00613        -1.24260
H         47.43941        43.66005        -1.61235
O         39.43207        38.15668         1.00147
H         38.59517        38.38271         1.48484
O         49.20591        28.94159        -0.92128
H         50.03825        29.23303        -1.34754
O         36.40106        31.63515         1.43053
H         37.25919        31.48503         1.88285
O         50.15899        39.42651         2.03096
H         49.37066        39.82305         2.46700
O         45.10808        26.97557        -0.78843
H         45.89444        27.38167        -1.23870
O         39.14004        26.64202        -0.07365
H         39.98030        26.14934        -0.19763
O         51.64073        31.81515         2.08017
H         52.34518        31.41923         2.63236
O         47.76134        32.42771         1.57001
H         47.94260        31.71220         2.22764
O         40.01928        32.27292        -2.59507
H         40.76188        31.65239        -2.77079
O         47.85676        29.70208         2.33173
H         47.05218        29.41002         2.82383
O         43.83948        37.95668         0.88766
H         43.74287        37.01153         1.12905
O         43.03093        44.54219         2.38833
H         42.14292        44.65015         2.80037
O         44.47010        30.28203        -1.74182
H         43.61639        30.01862        -2.16633
O         37.69530        32.85452        -2.69652
H         36.87640        32.35575        -2.92394
O         40.55614        42.70044        -1.72092
H         41.47505        42.48659        -2.02134
O         45.41048        35.18838        -3.36763
H         45.55878        34.20769        -3.26602
O         44.48513        32.94441        -2.30462
H         43.72937        33.08455        -2.93205
O         45.32796        29.07680         2.25527
H         44.48080        28.78178         2.65433
O         50.04660        36.54804        -2.46805
H         50.41673        35.89193        -3.10234
O         35.85566        44.07970        -0.92656
H         36.57356        44.01067        -1.59250
O         41.29281        41.83115         1.79672
H         40.49660        42.22901         2.20978
O         50.95583        38.99743        -2.06710
H         50.83564        38.16678        -2.59243
O         32.93596        30.85278        -2.52058
H         33.82898        31.12781        -2.83999
O         37.41332        27.94217         2.82329
H         36.51643        28.32708         2.92290
O         46.32972        38.93635         0.98582
H         47.09030        38.36005         1.21498
O         42.49216        33.45878         0.75338
H         43.30754        33.35921         1.30144
O         45.05771        40.86575         1.84729
H         45.91559        40.40748         2.03304
O         44.42228        46.89981         2.46573
H         43.77907        47.49469         2.90229
O         34.74429        40.30747        -1.11778
H         35.13914        39.63229        -1.71942
O         38.95129        46.55862         2.17996
H         39.62334        47.10307         2.63562
O         32.17512        34.63330         1.13016
H         32.78556        34.90515         1.85148
