         667
 CSIRO Nanostructure Databank - Neutral Graphene Oxide Data Set
C          5.88093        31.64548         0.81459
C          5.81922        32.99787         0.75051
C          8.44018        27.37332         0.79553
C          8.36797        28.78203         0.62304
C          7.14662        29.50566         0.72211
C          8.30641        31.60844         0.26395
C          7.10398        30.89489         0.56940
C          8.27525        33.06066        -0.00845
C          6.95105        33.81461         0.26909
C          8.24404        35.94951         0.41102
C          7.04557        35.23457         0.57028
C          8.27403        37.36485         0.53583
C         10.98356        23.13750         1.03197
C         10.91838        24.53215         0.85122
C          9.72358        25.25773         0.94625
C         10.88310        27.41956         0.55215
C          9.66041        26.67428         0.74206
C         10.82172        28.81035         0.40659
C          9.57797        29.51396         0.38771
C         10.73824        31.68541        -0.18596
C          9.52439        30.92565         0.19817
C         10.76751        33.14441        -0.02218
C          9.52746        33.83850         0.07954
C         10.73602        35.96469         0.28765
C          9.49691        35.23675         0.20672
C         10.72381        37.34436         0.49734
C          9.49327        38.08453         0.54893
C         10.78371        40.22577         0.70621
C          9.54691        39.49565         0.60907
C         10.76064        41.64336         0.64086
C         13.36388        18.86054         0.57220
C         13.41395        20.21361         0.81607
C         12.21946        21.00931         0.92471
C         13.45951        23.17031         0.90234
C         12.20838        22.40675         0.94596
C         13.43558        24.52664         0.74563
C         12.15744        25.22686         0.33435
C         13.34246        27.42270         0.42833
C         12.16246        26.72984         0.52229
C         13.38957        28.88555         0.41790
C         12.06734        29.59324         0.38310
C         13.31963        31.72455        -0.05762
C         12.06450        30.97045        -0.16030
C         13.27405        33.13231        -0.05559
C         12.00035        33.82681         0.01648
C         13.21562        35.94532         0.12413
C         12.00019        35.24966         0.17347
C         13.17818        37.42311         0.09904
C         12.01578        38.02293         0.86793
C         13.34341        40.17665         1.08129
C         12.00261        39.52153         0.83916
C         13.29210        41.69758         1.12555
C         11.93603        42.45304         0.91829
C         13.24124        44.56068         0.69816
C         12.03679        43.85396         0.56582
C         13.26632        45.97325         0.55443
C         15.79177        14.59549        -0.71824
C         15.78520        16.03547        -0.55764
C         14.57601        16.70017        -0.23668
C         15.85303        18.78353         0.32509
C         14.59693        17.98844         0.54329
C         15.94595        20.04936         0.82366
C         14.73082        20.92738         0.80407
C         16.00540        23.27383         0.95930
C         14.76233        22.43705         0.85516
C         15.98065        24.61852         0.56142
C         14.69408        25.30936         0.73629
C         15.86839        27.45749        -0.00803
C         14.66708        26.77539         0.51740
C         15.75907        28.82626        -0.37315
C         14.58226        29.55920        -0.13474
C         15.74531        31.70809        -0.41504
C         14.56187        30.99650        -0.20527
C         15.81992        33.14791        -0.01025
C         14.49124        33.87734        -0.07804
C         15.68852        36.06185        -0.13450
C         14.46081        35.28210        -0.07558
C         15.71257        37.44967        -0.10459
C         14.43325        38.20623        -0.14154
C         15.75178        40.33542         0.38454
C         14.40984        39.72889         0.03703
C         15.76111        41.71759         0.66126
C         14.52417        42.44575         0.84862
C         15.74083        44.58716         0.86670
C         14.50276        43.84251         0.83849
C         15.70130        45.98671         0.84790
C         14.46629        46.70916         0.66108
C         15.68314        48.88915         0.70633
C         14.48103        48.12389         0.62458
C         15.68988        50.28309         0.49314
C         18.23820        10.25403        -0.81518
C         18.23472        11.76463        -0.84021
C         17.02951        12.45119        -0.73581
C         18.22413        14.56423        -1.21609
C         16.96724        13.87105        -0.87146
C         18.24548        16.09940        -1.06656
C         17.01882        16.73729        -0.58716
C         18.36009        18.77461         0.01025
C         17.02614        18.22887        -0.45336
C         18.41877        20.19708         0.44292
C         17.26801        20.60661         1.05184
C         18.46857        23.28795         0.74835
C         17.27454        22.74993         1.24332
C         18.41464        24.61882         0.24217
C         17.17119        25.32973         0.26693
C         18.25534        27.37299        -0.62243
C         17.10715        26.74461        -0.10218
C         18.21145        28.76645        -1.11267
C         16.91330        29.51058        -0.98870
C         18.24087        31.76679        -0.95941
C         16.93752        31.04101        -0.94533
C         18.22390        33.17591        -0.85899
C         16.88791        33.91000        -0.80993
C         18.23691        36.04519        -0.21342
C         16.95566        35.29487        -0.18910
C         18.19295        37.52361        -0.15596
C         16.95955        38.18997        -0.02575
C         18.20823        40.31058         0.33651
C         16.96103        39.61165         0.22246
C         18.19538        41.71153         0.56044
C         16.99936        42.43010         0.70496
C         18.22022        44.57370         0.98211
C         17.00680        43.87794         0.87672
C         18.20898        46.00167         1.35410
C         16.90617        46.75610         1.16793
C         18.15242        48.90622         0.82713
C         16.93183        48.21149         0.91833
C         18.14906        50.31052         0.69639
C         16.90430        51.03101         0.50718
C         18.18839        53.20914         0.39776
C         16.92791        52.40938         0.25950
C         18.24296        54.48793        -0.40494
C         20.58721         6.41328         1.18946
C         20.67141         7.67662         0.66359
C         19.45796         8.40213         0.30960
C         20.72554        10.50568        -0.07031
C         19.47219         9.66784        -0.16707
C         20.73972        11.64212        -1.11224
C         19.47175        12.45001        -1.00780
C         20.73467        14.57490        -1.17730
C         19.51001        13.85212        -1.12053
C         20.73342        16.00718        -1.11035
C         19.56443        16.72828        -0.91680
C         20.87951        18.86586        -0.36396
C         19.62479        18.07777        -0.31273
C         20.92546        20.24878         0.00415
C         19.71547        20.91543         0.58770
C         20.97278        23.22887         0.39605
C         19.71594        22.47205         0.74559
C         20.86930        24.62694        -0.09501
C         19.61599        25.26327        -0.20432
C         20.82378        27.42983        -0.93460
C         19.50383        26.61926        -0.76487
C         20.79924        28.90712        -0.92893
C         19.51327        29.59109        -1.19554
C         20.69799        31.79569        -1.00249
C         19.47362        31.07433        -1.05002
C         20.67329        33.21166        -0.99289
C         19.43771        33.89080        -0.93088
C         20.68117        36.15792        -0.91107
C         19.41265        35.37922        -0.85887
C         20.68641        37.46001        -0.17480
C         19.41971        38.22831        -0.11639
C         20.73586        40.27139         0.29426
C         19.45813        39.60363         0.16006
C         20.70195        41.69592         0.78878
C         19.47103        42.46572         0.31534
C         20.68409        44.52592         1.06001
C         19.48695        43.88213         0.85325
C         20.70509        45.99764         0.93849
C         19.50710        46.82017         1.36609
C         20.74814        48.88778         0.39063
C         19.39085        48.07644         0.47698
C         20.65066        50.28335         1.00431
C         19.39754        51.02301         0.59567
C         20.69954        52.94692        -0.16686
C         19.42312        52.35248         0.27094
C         20.68950        54.31639        -0.77104
C         19.38954        55.04294        -0.84505
C         20.70540        57.12757        -1.43922
C         19.40424        56.35905        -1.59137
C         20.71333        58.47888        -1.70264
C         22.99011         3.78122         2.48447
C         21.79987         4.38578         2.17936
C         23.10678         6.13720         0.83898
C         21.75998         5.53504         1.26954
C         23.12739         7.55960         0.44876
C         21.96279         8.28761         0.34312
C         23.20277        10.31804        -0.30737
C         22.00274         9.68696        -0.08437
C         23.28593        11.68459        -0.96892
C         21.99605        12.46781        -0.98252
C         23.24750        14.59806        -0.94368
C         21.99219        13.84508        -1.05972
C         23.26415        15.98196        -0.97088
C         22.02086        16.77147        -1.32061
C         23.26742        18.87004        -0.78609
C         22.03306        18.18256        -0.75832
C         23.29115        20.28283        -0.64901
C         22.12599        20.96871        -0.21481
C         23.38453        23.20410        -0.49965
C         22.23081        22.43718         0.01927
C         23.32239        24.58021        -0.45347
C         22.07773        25.31714        -0.38447
C         23.26763        27.46353        -0.83496
C         22.08963        26.73597        -0.62797
C         23.25615        28.89813        -0.95794
C         21.98253        29.61967        -0.90664
C         23.17455        31.75515        -1.16057
C         21.98844        31.08060        -1.01212
C         23.20803        33.24820        -1.40788
C         21.98422        33.96840        -0.80616
C         23.25771        36.12427        -0.69648
C         22.00218        35.46484        -1.25593
C         23.26188        37.47227        -0.33125
C         21.99147        38.15837         0.01670
C         23.23143        40.30534         0.36295
C         21.95754        39.61729         0.22066
C         23.25700        41.69822         0.58136
C         21.97681        42.48629         0.43627
C         23.25363        44.56665         0.93725
C         21.99755        43.78118         1.23980
C         23.23382        46.00626         1.36967
C         21.99753        46.73606         0.90543
C         23.14956        48.90599         1.21959
C         21.96894        48.20162         0.99421
C         23.15650        50.34318         1.03835
C         21.95819        51.02592         0.77289
C         23.18925        53.05340         0.01994
C         21.96738        52.34931         0.28123
C         23.16926        54.41610        -0.47086
C         21.95777        55.07698        -0.78085
C         23.16834        57.18271        -1.15209
C         21.93759        56.45109        -1.12041
C         23.16129        58.57616        -1.45373
C         21.92773        59.24194        -1.70477
C         23.13825        61.33693        -2.02098
C         21.93335        60.62536        -1.98437
C         24.24486         4.34297         2.10857
C         25.55253         6.27321         1.32092
C         24.33296         5.54659         1.41169
C         25.63813         7.54123         0.73758
C         24.45512         8.11309        -0.01785
C         25.64168        10.31294         0.03889
C         24.46206         9.62446        -0.07697
C         25.66542        11.81975         0.11283
C         24.45968        12.49692        -0.49987
C         25.73222        14.59630        -0.50219
C         24.47590        13.86271        -0.65915
C         25.74544        16.00547        -0.65613
C         24.50189        16.72032        -0.86789
C         25.74549        18.86461        -0.99280
C         24.48763        18.11788        -0.90470
C         25.73894        20.32307        -0.81063
C         24.55223        20.99876        -0.80652
C         25.88314        23.09396        -1.29636
C         24.49686        22.45427        -1.21813
C         26.08791        24.38717        -2.03104
C         24.53068        25.44323        -0.45442
C         25.77478        27.38722        -1.51464
C         24.44893        26.65278        -1.36800
C         25.73425        28.87431        -1.35557
C         24.44198        29.57639        -1.16781
C         25.61511        31.69794        -0.58598
C         24.48385        31.05717        -1.42473
C         25.65285        33.21371        -0.72803
C         24.47586        33.94322        -0.89782
C         25.67969        36.02450        -0.25704
C         24.47209        35.36575        -0.67640
C         25.67195        37.42166         0.03122
C         24.47966        38.15156        -0.02812
C         25.67854        40.31461         0.29109
C         24.46845        39.59946         0.23908
C         25.70906        41.71416         0.55061
C         24.46711        42.41200         0.66739
C         25.70161        44.56836         0.81096
C         24.45250        43.86850         0.79244
C         25.72169        46.08367         0.66036
C         24.47001        46.80585         1.10287
C         25.68312        48.96975         1.54259
C         24.42430        48.16048         1.27951
C         25.64508        50.25537         0.67609
C         24.44461        51.13992         1.09819
C         25.65373        53.10448         0.10143
C         24.41682        52.43187         0.31055
C         25.64394        54.47011        -0.30486
C         24.40729        55.13344        -0.56174
C         25.63982        57.24731        -0.97863
C         24.39858        56.51556        -0.90109
C         25.61249        58.62857        -1.27539
C         24.39350        59.30685        -1.50379
C         24.35202        60.69821        -1.79066
C         26.83606         8.27363         0.76539
C         28.09884        10.34784         0.40317
C         26.89122         9.63047         0.36297
C         28.18322        11.72820         0.08479
C         26.95361        12.39927        -0.48048
C         28.15561        14.60256        -0.11093
C         26.95191        13.90575        -0.31532
C         28.16670        16.02007        -0.19775
C         26.98076        16.69088        -0.55810
C         28.29951        18.87436        -0.63273
C         27.04802        18.12186        -0.87099
C         28.30610        20.25251        -0.69014
C         27.02745        21.03736        -0.47016
C         28.37201        23.07143        -1.40163
C         27.03895        22.43203        -1.04039
C         28.36159        24.57467        -1.17918
C         27.18068        25.26373        -1.48603
C         28.22307        27.40324        -0.94074
C         27.07139        26.66670        -1.30248
C         28.18682        28.85563        -0.83715
C         26.97539        29.58703        -0.97801
C         28.16278        31.68481        -0.72215
C         26.94147        30.98158        -0.79795
C         28.15049        33.16815        -0.76009
C         26.88133        33.89854        -0.48064
C         28.16604        35.91895         0.22052
C         26.89445        35.26997        -0.21043
C         28.19751        37.40059         0.50438
C         26.87263        38.16225         0.60298
C         28.23081        40.31836         0.19796
C         26.94286        39.55941        -0.06541
C         28.21208        41.76753         0.46128
C         26.94622        42.43617         0.67624
C         28.17169        44.60823         0.85158
C         26.91586        43.86048         0.84442
C         28.18423        45.97995         0.85392
C         26.93407        46.66287         1.36819
C         28.21193        48.91132         0.94185
C         26.98586        48.18156         1.35323
C         28.16150        50.37158         0.68142
C         26.94659        51.03732         0.62090
C         28.14543        53.13466         0.11911
C         26.90498        52.42834         0.30613
C         28.10677        54.51350        -0.21177
C         26.88637        55.19099        -0.42632
C         26.85834        56.56683        -0.75548
C         29.35994        12.44123         0.23195
C         30.57693        14.56883         0.34826
C         29.40992        13.87928         0.12893
C         30.56666        16.05284         0.59226
C         29.41270        16.75875        -0.07810
C         30.82762        18.77891        -0.59152
C         29.49473        18.10172        -0.37934
C         30.79489        20.27557        -0.38512
C         29.55299        21.00031        -0.61457
C         30.85230        23.12926        -0.79902
C         29.55418        22.37217        -0.77365
C         30.72931        24.59409        -0.42478
C         29.51728        25.28995        -0.77620
C         30.63203        27.43371        -0.30923
C         29.44878        26.71125        -0.67858
C         30.62646        28.85646        -0.31043
C         29.38957        29.56939        -0.59945
C         30.72048        31.65546        -0.85285
C         29.37642        30.98587        -0.65846
C         30.72842        33.15679        -0.68600
C         29.45063        33.89795        -0.72538
C         30.74780        36.00367        -0.17677
C         29.47138        35.25134        -0.09249
C         30.74377        37.45426        -0.07048
C         29.47018        38.15661         0.27643
C         30.73723        40.34654         0.32658
C         29.41309        39.63990         0.15993
C         30.66334        41.84412        -0.02505
C         29.41344        42.45072         0.56068
C         30.70978        44.58231         0.75050
C         29.45071        43.85024         1.08704
C         30.69436        45.96621         0.32893
C         29.36860        46.70944         0.35620
C         30.67605        48.86378         0.84464
C         29.38631        48.23191         0.26405
C         30.64209        50.34281         0.55278
C         29.42887        51.05250         0.50007
C         29.37686        52.44966         0.24005
C         31.88662        16.75826         0.44292
C         33.17681        18.83558         0.30913
C         31.97933        18.08540         0.10141
C         33.19878        20.23517         0.19578
C         31.97988        20.95539        -0.16051
C         33.07817        23.08720         0.34422
C         31.98501        22.40063        -0.12069
C         32.90734        24.51378         0.81265
C         31.82256        25.28485         0.06766
C         32.97027        27.46558         0.44197
C         31.80989        26.72798         0.08654
C         32.96600        28.87383         0.42435
C         31.79430        29.56086         0.05358
C         33.12411        31.66598        -0.09808
C         31.74430        31.07034         0.13588
C         33.19649        33.09977        -0.52787
C         31.90592        33.84241        -0.55961
C         33.19540        35.98534        -0.25580
C         31.92538        35.29359        -0.37479
C         33.22717        37.48262        -0.43505
C         31.90391        38.16641        -0.20356
C         33.19851        40.39678        -0.19576
C         31.87308        39.66033        -0.45687
C         33.15198        41.82067         0.23559
C         31.97241        42.48394         0.39712
C         33.23111        44.64417         0.53730
C         32.00596        43.88196         0.99726
C         33.19456        45.99415         0.29159
C         31.95918        46.75646         0.33153
C         31.93058        48.11949         0.42474
C         34.36023        20.98304         0.49716
C         35.51519        23.13713         0.75978
C         34.32968        22.39194         0.58949
C         35.52033        24.55595         0.78901
C         34.22713        25.26784         0.96212
C         35.50557        27.42994         0.54808
C         34.22773        26.75700         0.80278
C         35.47444        28.88714         0.37157
C         34.22709        29.57295         0.93180
C         35.58120        31.77057         0.45786
C         34.23584        31.13086         0.78546
C         35.62915        33.14603         0.21647
C         34.50530        33.87199        -0.48293
C         35.63709        36.02652         0.15966
C         34.38847        35.32340        -0.10855
C         35.62567        37.41109         0.40593
C         34.30346        38.14370         0.44987
C         35.59738        40.33462         0.73537
C         34.44546        39.62487         0.12904
C         35.60413        41.69614         0.79409
C         34.42450        42.49736         0.51878
C         34.45459        43.87832         0.55297
C         36.70023        25.28762         0.68124
C         37.96828        27.42139         0.51681
C         36.72624        26.72406         0.57130
C         38.04664        28.84088         0.57265
C         36.79117        29.60892         0.41084
C         38.01293        31.74187         0.76856
C         36.79629        31.06646         0.65602
C         38.04401        33.15433         0.65705
C         36.85223        33.85646         0.34447
C         38.06348        35.99500         0.59822
C         36.85471        35.29774         0.31157
C         38.01574        37.39426         0.82945
C         36.80311        38.08576         0.79891
C         36.69314        39.49165         1.34980
C         39.22724        29.52661         0.81391
C         40.50999        31.73342         0.85807
C         39.24544        30.98314         1.20172
C         40.52194        33.08004         0.74959
C         39.29461        33.87104         0.73087
C         39.28945        35.25424         0.71164
O         14.83017        26.23149         1.90287
O         18.85879        29.04594        -2.38745
O         17.31066        21.60534         2.02864
O         19.91700        21.57867         1.87005
O         11.35509        31.16297        -1.42469
O         23.22409        33.32482        -2.85794
O         21.99289        22.94222         1.38943
O         28.87982        35.16871         1.26014
O         19.01232        17.97608         1.05992
O         28.75424        33.74086        -2.01022
O         27.99413        48.58633         2.36359
O         26.51447        18.46228        -2.20686
O         12.83461        29.52678         1.63455
O         25.80397        28.23402        -2.70721
O         21.34422        37.38379         1.13252
O          7.39318        33.45850        -1.09406
O         13.51366        37.87240        -1.25499
O         18.10064        15.42827        -2.37869
O         17.78830        35.37886         1.01193
O         21.35216        46.32550        -0.35621
O         22.35867         5.26081        -0.05329
O         29.85124        46.14542        -0.91372
O         34.18206        40.08609        -1.23640
O         34.20180        26.12226         2.17199
O         25.39374        25.32440         0.40943
O         29.04635        37.72840         1.65095
O         20.71052        53.14295        -1.66048
O         12.55411        42.16514         2.25980
O         16.61408        30.29175        -2.17795
O         25.55231        24.59155        -3.11591
O         14.81689        21.72161        -0.45937
O         33.38159        31.97550        -1.47899
O         20.15540        26.80116        -2.06262
O         36.06397        29.36167        -0.87052
O         17.40467        46.34276         2.52363
O         30.51361        42.06294        -1.45049
H         31.05096        41.38653        -1.93510
O         20.68014        11.18054         1.22318
H         20.60683        10.49263         1.91754
O         30.27451        16.17606         2.04541
H         30.19934        17.13312         2.24928
O         32.17377        43.71045         2.44744
H         31.29218        43.42737         2.79982
O         25.24887        31.44374         0.80036
H         25.86447        31.93636         1.38306
O         33.90202        31.69800         2.08995
H         34.26949        31.08785         2.77314
O         19.78607        47.22465         2.71414
H         18.92578        47.23500         3.19789
O         23.97816        26.26557        -2.67495
H         24.30231        26.94689        -3.30780
O         23.10687        45.98104         2.84689
H         24.01331        45.92122         3.22121
O         33.83297        38.07626         1.82249
H         34.57936        38.36530         2.40229
O         31.28539        31.43962         1.45586
H         32.07954        31.49468         2.04544
O         30.61227        48.67974         2.29663
H         31.32342        49.22074         2.69869
O         21.97505        42.89378        -0.95121
H         21.66875        42.14250        -1.50072
O         24.83772        31.21080        -2.82127
H         24.33613        31.98498        -3.18244
O         26.58120        38.34525         2.00210
H         27.43769        38.28925         2.48728
O         21.06434        49.05888        -1.00776
H         21.34479        48.17406        -1.33928
O         12.11618        25.06381        -1.13058
H         12.04659        24.10295        -1.31874
O         19.07269        47.57471        -0.84029
H         19.26944        48.29547        -1.48078
O         18.21181        53.67782         1.82036
H         17.90855        52.92651         2.37481
O         32.35286        24.35518         2.15611
H         32.73175        25.08373         2.70374
O         25.68077        12.16427         1.53066
H         24.83412        11.86745         1.92469
O         36.33747        39.32673         2.74999
H         36.22239        40.21835         3.14097
O         31.09220        40.26949         1.72770
H         30.88135        39.36856         2.05561
O         23.57362        11.36529        -2.38861
H         22.75393        10.93891        -2.73664
O         20.76223        10.99067        -2.43881
H         20.61895        11.69550        -3.10730
O         28.54358        22.87229        -2.85370
H         27.79926        23.31917        -3.31496
O         25.88750        46.35470        -0.75592
H         25.10532        46.00675        -1.23299
O         24.01457        22.39427        -2.59671
H         24.24879        23.25035        -3.03818
O         29.44714        43.69379         2.60299
H         29.07323        44.51812         2.98610
O         24.61516         7.62677        -1.39116
H         23.85331         7.95650        -1.91275
O         26.91770        39.30519        -1.50059
H         26.99652        40.16533        -1.96452
O         20.52191        50.08259         2.43766
H         20.61267        50.95132         2.88093
O         22.21886        33.96957         0.62365
H         21.50877        34.47778         1.07019
O         19.51446        42.58228        -1.14071
H         18.77461        43.16363        -1.41587
O         12.28087        37.60150         2.25660
H         11.59753        38.01540         2.82456
O         13.85712        39.75682         2.37004
H         13.35140        40.24399         3.05660
O         18.28548        57.17073        -1.23347
H         18.33229        57.35317        -0.27278
O         26.98492        21.19418         0.99495
H         26.27197        21.83148         1.21639
O         26.95990        12.12292        -1.90374
H         26.06287        12.31432        -2.25575
O         25.38889        49.77912        -0.66768
H         25.46703        50.53507        -1.28674
O         22.11970        43.46475         2.65486
H         22.26764        44.32459         3.12237
O         29.29558        48.60247        -1.12236
H         29.62325        47.83453        -1.64899
O         25.62335        49.28831         2.95602
H         26.56191        49.35625         3.26146
O         31.26035        23.16430        -2.21952
H         30.43715        23.13249        -2.76556
O         16.25815        33.16165         1.38244
H         15.54705        32.76686         1.92946
O         24.59756        51.60625         2.46814
H         24.77241        50.80758         3.02885
O         34.96973        33.95392        -1.87576
H         34.78271        33.07250        -2.27741
O         14.72404        17.47963         1.94135
H         15.60065        17.04307         2.01539
O         31.10236        18.60733        -2.02798
H         30.39305        19.07087        -2.52271
O         22.13997        35.61117        -2.69243
H         23.10986        34.27384        -3.12566
O         16.42899        34.07820        -2.16607
H         16.32607        33.19270        -2.57558
O         31.09623        31.31273        -2.20590
H         30.49840        31.79818        -2.81261
O         39.20277        30.97557         2.68381
H         39.26383        31.90958         2.97805
O         16.85193        18.77601        -1.80683
H         16.05009        18.36938        -2.19845
O         18.20304         9.77668        -2.17819
H         19.07445        10.00736        -2.57987
O         19.78173        36.13404        -2.07299
H         21.22285        35.66591        -3.06183
O         31.62168        39.74386        -1.88690
H         32.42256        39.35293        -2.31560
O         14.02606        40.33946        -1.21624
H         13.59251        39.63420        -1.75590
O         20.53987        41.58058         2.21796
H         21.37251        41.23813         2.60500
O         33.56213        37.68122        -1.83987
H         34.30404        37.07905        -2.06500
O         34.29740        29.30163         2.36389
H         34.23914        28.33022         2.50679
O         26.79027        46.28318         2.76439
H         27.39152        46.87112         3.27612
O         22.09481        16.97720        -2.77648
H         22.12468        16.09396        -3.20137
H          4.99807        31.07801         1.14585
H          4.90022        33.52148         1.05516
H          7.51086        26.81359         0.98126
H          6.21726        28.95828         0.94060
H          6.15700        35.75297         0.96165
H          7.32461        37.91272         0.62895
H         10.05610        22.58193         1.24124
H          8.79355        24.72403         1.19775
H          8.60696        40.06646         0.59394
H          9.83598        42.14887         0.32711
H         12.38271        18.36165         0.52632
H         11.25428        20.47943         0.94087
H         11.14397        44.37063         0.18422
H         12.31627        46.51137         0.42030
H         14.84920        14.05340        -0.54746
H         13.64994        16.10390        -0.20631
H         13.52929        48.65691         0.47835
H         14.74292        50.80306         0.28649
H         17.31320         9.87337        -0.31298
H         16.10101        11.89258        -0.54425
H         15.97878        52.94660         0.11186
H         17.30242        55.05048        -0.52053
H         19.60941         6.01768         1.50516
H         18.51529         7.83209         0.30960
H         19.28752        56.12488        -2.68767
H         19.76463        58.98425        -1.93803
H         22.99403         2.88805         3.12568
H         20.85795         4.01873         2.61277
H         23.12373        62.41381        -2.24071
H         20.98268        61.14210        -2.17870
H         25.16552         3.87781         2.49028
H         26.45224         5.84450         1.79047
H         26.55921        59.18688        -1.32575
H         25.29220        61.26691        -1.82878
H         27.74163         7.80533         1.18170
H         29.01214         9.82419         0.72756
H         29.05259        55.06340        -0.32817
H         27.80582        57.12077        -0.83052
H         30.27094        11.91547         0.55998
H         31.50919        14.01665         0.54370
H         31.58834        50.88731         0.40914
H         30.31413        53.00531         0.08762
H         32.76712        16.25849         0.87931
H         34.06703        18.31536         0.69575
H         34.13265        46.54019         0.10319
H         32.88621        48.66955         0.44702
H         35.30474        20.45351         0.69383
H         36.47947        22.60684         0.77380
H         36.49572        42.21887         1.17804
H         35.41978        44.40688         0.59179
H         37.65526        24.74496         0.61487
H         38.89879        26.83869         0.58828
H         38.93770        37.92299         1.11503
H         37.68286        40.02406         1.28745
H         40.15989        28.95594         0.94611
H         41.45669        31.17210         0.84100
H         41.47465        33.61406         0.60902
H         40.23604        35.80774         0.80566
