         576
 CSIRO Nanostructure Databank - Neutral Graphene Oxide Data Set
C          6.09260        19.06446        -1.35126
C          6.08861        20.44890        -1.23436
C          4.91085        21.23527        -1.53504
C          6.12231        23.37125        -1.30876
C          4.94185        22.59992        -1.62140
C          6.19431        24.72479        -1.54132
C          8.51034        14.73414        -1.18376
C          8.49662        16.12119        -0.97280
C          7.30849        16.89987        -1.23924
C          8.56089        19.02152        -1.03477
C          7.28862        18.28411        -1.19831
C          8.49519        20.48460        -0.83038
C          7.30726        21.16288        -0.89544
C          8.55277        23.35425        -0.66215
C          7.22624        22.64383        -0.57140
C          8.55461        24.86459        -0.61693
C          7.38982        25.51780        -1.33265
C          8.76176        27.54067        -1.86946
C          7.46059        26.83657        -1.69227
C          8.89700        28.99210        -1.87438
C         10.94749        10.40609        -1.06389
C         10.87306        11.80485        -0.87683
C          9.69900        12.54307        -1.14544
C         10.80169        14.56420        -0.31420
C          9.65537        13.93331        -0.90636
C         10.79152        15.97394        -0.14715
C          9.67688        16.76035        -0.44632
C         10.84467        19.01396         0.19004
C          9.77991        18.24229        -0.50969
C         10.96572        20.45922        -0.11671
C          9.75914        21.20409        -0.60565
C         10.96271        23.35938        -0.17157
C          9.71239        22.66973        -0.42123
C         11.02913        24.73392        -0.55249
C          9.91151        25.41518        -0.99710
C         11.39650        27.39778        -1.74202
C         10.02659        26.71395        -1.67677
C         11.35041        28.90828        -1.60453
C         10.14028        29.66244        -1.80077
C         11.39503        31.82520        -1.70885
C         10.19025        31.10457        -1.80112
C         11.50011        33.24239        -1.71555
C         13.39763         6.12808        -1.18493
C         13.23284         7.43268        -0.51825
C         12.10453         8.27134        -0.87339
C         13.24953        10.35995        -0.15061
C         12.07828         9.66131        -0.65251
C         13.23994        11.73767        -0.08747
C         12.02999        12.47298        -0.33420
C         12.96679        14.25531         1.09903
C         11.96539        13.82161         0.04392
C         13.28810        16.48397        -0.06328
C         12.01119        16.53065         0.43163
C         13.13429        19.14646         1.15474
C         11.82592        18.51712         1.01713
C         13.17762        20.50187         1.04530
C         11.88653        21.24180         0.80009
C         13.29507        23.33115         0.64496
C         12.09578        22.66709         0.34409
C         13.26534        24.83672         0.53358
C         12.41330        25.32526        -0.64311
C         13.78526        27.43241        -0.85491
C         12.35881        26.85842        -0.67537
C         13.71625        28.93479        -0.77919
C         12.54835        29.57403        -1.26381
C         13.84803        31.74049        -1.02136
C         12.61753        31.01900        -1.52056
C         13.83677        33.20213        -1.04488
C         12.71361        33.96499        -1.44520
C         13.69066        36.30461        -0.95995
C         12.67356        35.42458        -1.35413
C         13.50898        37.68665        -0.54565
C         15.80875         6.11404        -0.71916
C         14.58200         5.47419        -1.16460
C         15.77536         7.47522        -0.27487
C         14.50302         8.12467         0.04882
C         15.72666        10.38097         0.25782
C         14.42976         9.61159         0.44964
C         15.74321        11.73643         0.19408
C         14.49743        12.56213         0.04787
C         15.62161        14.68483         0.41589
C         14.45358        13.75888         1.03062
C         15.60407        16.17657         0.81851
C         14.46917        16.95315         0.70899
C         15.60394        18.99769         1.91630
C         14.34718        18.28450         1.42870
C         15.54470        20.50414         1.91297
C         14.26019        21.26599         1.71998
C         15.57289        23.40058         1.61375
C         14.41557        22.69821         1.27074
C         15.63840        24.85907         1.39180
C         14.61120        25.50801         0.54279
C         15.95432        27.55704         0.43317
C         14.76236        26.79246         0.10559
C         15.94141        28.92375         0.36962
C         14.80997        29.65509        -0.19806
C         15.71436        31.85604         0.76456
C         14.83444        31.04820        -0.19294
C         15.98257        33.23023         0.20173
C         15.13749        33.71579        -0.75795
C         15.93657        36.40708         0.12044
C         15.04919        35.86987        -0.77933
C         15.81369        37.81868         0.36892
C         14.53187        38.40947         0.02094
C         18.27128         6.11680        -0.64971
C         17.03127         5.44928        -0.85490
C         18.21186         7.52623        -0.37831
C         16.99468         8.18596        -0.17759
C         18.28028        10.33686         0.45793
C         16.98891         9.58879         0.32563
C         18.23046        11.84562         0.68850
C         17.02318        12.53310         0.01961
C         18.15458        14.62876         0.82977
C         16.96250        13.97540         0.55296
C         18.13721        15.99823         1.42131
C         16.83486        16.77929         1.45257
C         18.15240        18.87375         1.76929
C         16.90910        18.27350         1.69959
C         18.41493        20.21129         2.26251
C         16.54314        21.29073         2.40496
C         18.03678        23.25912         2.11048
C         16.75753        22.70174         2.09736
C         18.12388        24.74520         2.07454
C         16.93790        25.54942         1.60109
C         18.37797        27.57243         1.19890
C         17.20167        26.76605         0.72032
C         18.47173        29.01336         0.73561
C         17.11593        29.68484         0.88134
C         18.33136        31.95492         1.14772
C         17.05284        31.16320         1.07111
C         18.28931        33.35537         1.16274
C         17.03289        34.06881         0.85053
C         18.25626        36.37228         1.00474
C         17.02461        35.62074         0.76862
C         18.24716        37.78863         0.82721
C         16.99100        38.49419         0.67787
C         20.77126         6.05656        -0.49439
C         19.50702         5.41770        -0.68302
C         20.76893         7.53826        -0.52312
C         19.46656         8.29150        -0.42672
C         20.72652        10.38777        -0.09473
C         19.52112         9.69900        -0.02094
C         20.71809        11.86586        -0.11004
C         19.44306        12.59486         0.18441
C         20.66270        14.72825         0.60478
C         19.44252        14.01193         0.60601
C         20.70532        16.08675         0.94633
C         19.49966        16.70746         1.63434
C         20.66151        18.98225         1.18937
C         19.39151        18.18607         1.30230
C         20.68514        20.44196         1.51792
C         19.44124        21.06337         1.94069
C         20.60757        23.26373         1.77213
C         19.38273        22.53517         2.43091
C         20.71345        24.76644         1.99220
C         19.42721        25.48121         2.12644
C         20.69512        27.61546         1.90717
C         19.44339        26.90628         1.71511
C         20.51165        29.03754         2.09045
C         19.53172        29.80121         1.48608
C         20.77582        32.02394         1.53612
C         19.54199        31.25115         1.45749
C         20.76325        33.41509         1.49800
C         19.47799        34.12451         1.55413
C         20.78155        36.42740         1.48893
C         19.43867        35.69328         1.51903
C         20.71451        37.84917         0.94951
C         19.46872        38.50434         0.85903
C         23.27279         6.09248        -0.02042
C         21.97930         5.39325        -0.37135
C         23.19954         7.59192        -0.16047
C         22.01133         8.27397        -0.22545
C         23.19975        10.45157         0.02506
C         21.98026         9.71581        -0.18871
C         23.14638        11.88952         0.25183
C         21.98090        12.58126         0.09007
C         23.22046        14.81233         0.14076
C         21.91175        14.06680         0.12189
C         23.20170        16.18822         0.68661
C         21.94275        16.82666         0.93648
C         23.15012        18.90012         1.42621
C         21.94083        18.22606         1.21457
C         23.13590        20.33803         1.79677
C         21.87207        21.09271         1.72773
C         23.14962        23.25982         1.61010
C         21.92038        22.55004         2.17216
C         23.04754        24.70889         1.18970
C         21.87465        25.47420         1.77317
C         23.22475        27.69136         1.73706
C         21.91165        26.94699         1.85021
C         23.27417        29.17758         1.41487
C         22.30960        30.06383         1.92679
C         23.16853        31.97986         0.77947
C         22.08129        31.35964         1.43619
C         23.15680        33.41867         0.63075
C         22.06962        34.19754         1.37150
C         23.05520        36.32943         0.31005
C         21.77590        35.56348         0.67118
C         23.15761        37.79262         0.56480
C         21.92695        38.50608         0.71952
C         25.71481         6.19705        -0.61811
C         24.52774         5.51672        -0.65625
C         25.70698         7.62061        -0.09135
C         24.43777         8.36311        -0.50585
C         25.67790        10.48391         0.25027
C         24.42999         9.79384        -0.02374
C         25.65430        11.83810         0.59374
C         24.37845        12.62130         0.73048
C         25.74251        14.71998         0.61189
C         24.53437        13.99196         0.05585
C         25.69728        16.21254         0.37491
C         24.41409        16.87491         0.87586
C         25.64079        18.95650         1.58262
C         24.38472        18.22470         1.28655
C         25.66448        20.42690         1.45049
C         24.41750        21.13809         1.75056
C         25.55893        23.25613         1.02923
C         24.33992        22.59338         1.47812
C         25.51485        24.69984         0.88124
C         24.38032        25.41008         1.18272
C         25.59171        27.57406         0.71277
C         24.44063        26.88759         1.32767
C         25.44559        28.95398         0.22486
C         24.28110        29.77671         0.61328
C         25.44102        31.90646        -0.17743
C         24.27431        31.18446         0.38952
C         25.53031        33.38360        -0.01291
C         24.29904        34.08676         0.23894
C         25.61245        36.26330         0.11398
C         24.31827        35.55932         0.09876
C         25.62795        37.68832         0.21361
C         24.39562        38.40856         0.44721
C         28.20234         6.24912        -0.72242
C         26.99869         5.59819        -0.92721
C         28.22447         7.66805        -0.18472
C         26.93978         8.41581        -0.54584
C         28.15936        10.43131         0.32789
C         26.93898         9.80202         0.07565
C         28.19963        11.75007         0.98320
C         26.86090        12.53170         1.04080
C         28.18216        14.65123         1.12326
C         26.92235        14.02419         0.94646
C         28.25196        16.11639         1.04569
C         26.98935        16.88826         0.81232
C         28.17849        19.03718         1.30643
C         26.94165        18.24093         1.44603
C         28.08200        20.39605         1.07230
C         26.81595        21.11120         1.10811
C         27.98718        23.27030         0.53776
C         26.76594        22.55793         0.89537
C         27.97412        24.61771         0.29127
C         26.66878        25.36429         0.16824
C         27.96634        27.53112         0.09920
C         26.77057        26.86074         0.37547
C         28.00010        29.03137         0.26542
C         26.70399        29.65138        -0.21813
C         27.99919        31.85556        -0.22683
C         26.69929        31.13951        -0.41643
C         28.01697        33.34345        -0.13919
C         26.72793        34.07412        -0.12576
C         28.04823        36.19916        -0.18860
C         26.79428        35.52313        -0.04990
C         28.06978        37.63153        -0.14057
C         26.86411        38.34692         0.09408
C         30.67983         6.28209        -0.63351
C         29.47577         5.60292        -0.83504
C         30.70637         7.71582        -0.47407
C         29.42614         8.47213        -0.68163
C         30.61589        10.53154         0.11899
C         29.41727         9.83825        -0.03113
C         30.63201        11.91625         0.56859
C         29.45798        12.50827         0.99623
C         30.73048        14.63890         1.55370
C         29.39284        13.87056         1.66150
C         30.71091        16.14886         1.63094
C         29.36745        16.86574         1.77648
C         30.61153        18.94650         0.97163
C         29.42493        18.31920         1.31561
C         30.63816        20.41486         0.87149
C         29.32725        21.15862         0.94931
C         30.53912        23.29562         0.55021
C         29.26087        22.48918         0.24539
C         30.49384        24.60089        -0.21727
C         29.17246        25.30708        -0.23970
C         30.50789        27.49663        -0.28771
C         29.18579        26.82097        -0.33918
C         30.48474        28.95258        -0.09593
C         29.21111        29.65317        -0.40886
C         30.51051        31.88897        -0.57305
C         29.24121        31.13030        -0.62207
C         30.47586        33.31050        -0.57250
C         29.28326        34.03928        -0.44482
C         30.45451        36.19077        -0.71047
C         29.26737        35.48419        -0.44897
C         30.47674        37.61001        -0.66167
C         29.30359        38.31048        -0.35202
C         33.12450         6.27278        -0.46415
C         31.95058         5.59265        -0.59287
C         33.16182         7.72275        -0.43389
C         31.88670         8.42671        -0.39739
C         33.06051        10.58579        -0.21590
C         31.87027         9.87199        -0.19657
C         33.10120        11.96975         0.18186
C         31.90580        12.63017         0.59130
C         33.18800        14.68422         1.00716
C         31.95382        13.98193         0.99704
C         33.17669        16.15302         1.22026
C         31.88570        16.87293         1.09430
C         32.97357        18.84662        -0.00002
C         31.84114        18.20720         0.78224
C         33.03576        20.36850         0.05315
C         31.82561        21.12572         0.33343
C         33.00711        23.24233        -0.03463
C         31.79391        22.50311         0.21693
C         33.02579        24.62095        -0.02416
C         31.77736        25.36655        -0.29920
C         32.97105        27.58408        -0.20639
C         31.73523        26.84602        -0.26956
C         33.01188        28.98220        -0.23305
C         31.75780        29.74631        -0.09307
C         32.96930        31.87140        -0.42707
C         31.73806        31.19310        -0.42263
C         32.98221        33.23859        -1.10558
C         31.79904        34.06915        -0.53326
C         32.95836        36.17763        -1.18823
C         31.65170        35.42431        -1.23062
C         32.89951        37.62038        -1.14260
C         31.73570        38.29411        -0.91115
C         34.33008         8.43599        -0.51264
C         35.56196        10.63000        -0.47367
C         34.28805         9.91585        -0.78872
C         35.58896        11.95160        -0.09150
C         34.34653        12.65933         0.24562
C         35.70308        14.69782         0.71758
C         34.38874        14.00530         0.66030
C         35.74566        16.20429         0.80016
C         34.46004        16.96489         0.93058
C         35.44296        18.73067        -0.62662
C         34.32874        18.24781         0.26675
C         35.39693        20.26482        -0.79132
C         34.18768        21.00312        -0.32677
C         35.53748        23.14115        -0.23601
C         34.20657        22.49646        -0.57014
C         35.58483        24.64044        -0.01076
C         34.28456        25.38134         0.12287
C         35.55190        27.59486        -0.24533
C         34.25422        26.87482         0.04542
C         35.56978        29.09129        -0.37127
C         34.22484        29.73256        -0.22530
C         35.88387        32.13232        -1.03793
C         34.13006        31.12174        -0.11804
C         35.53682        33.50254        -1.40906
C         34.28847        34.05047        -1.18134
C         34.14664        35.49180        -1.27741
C         36.83948        12.65184        -0.07520
C         38.12010        14.74123         0.07400
C         36.91862        14.01733         0.19978
C         38.19017        16.16986         0.13187
C         36.92415        16.91253         0.25692
C         38.03650        18.87054        -0.69248
C         36.80668        18.18258        -0.22927
C         37.98124        20.31068        -1.09916
C         36.66913        21.03734        -1.05883
C         37.92587        23.19736        -0.88216
C         36.74395        22.48876        -0.75370
C         37.91489        24.65225        -0.86933
C         36.76640        25.34828        -0.52117
C         37.81878        27.50537        -1.45353
C         36.62320        26.77032        -0.89699
C         37.76440        28.99043        -1.52914
C         36.68359        29.74654        -1.16521
C         36.62079        31.14716        -1.63006
C         39.36260        16.85831        -0.12813
C         40.54037        19.05481        -0.72531
C         39.34697        18.36322        -0.11105
C         40.48918        20.38956        -1.06437
C         39.22752        21.10979        -1.06424
C         40.39617        23.26031        -1.30849
C         39.18176        22.49174        -1.11103
C         40.34409        24.63850        -1.41318
C         39.11291        25.38242        -1.27918
C         39.07793        26.75168        -1.48290
C         41.68099        21.16667        -1.35655
C         41.63318        22.52269        -1.46717
O         25.88523        31.53422        -1.54782
O         15.90878        25.67842         2.61636
O         31.04863        29.42354         1.18383
O         15.53483        34.80369        -1.52950
O         36.01334        15.38780         1.97676
O         10.89380        20.85089        -1.50282
O         23.47324        36.00570        -1.06264
O         28.93012        25.96279        -1.52561
O         34.25348        26.20749         1.35376
O         27.43536        11.89417         2.22056
O         35.29522        31.80549         0.20494
O         36.74824        26.94890        -2.34704
O         29.06084        30.18599        -1.74591
O         19.85330        12.38369        -1.19411
O         33.92909        16.78871         2.29732
O         36.03953        28.42157         0.85481
O         26.32403        18.35104         2.76114
O         24.20462        27.29745         2.75195
O         19.25762        34.96867         2.77196
O         23.86382        20.67096         3.04421
O         15.38158        14.53922        -1.04223
O         17.31803        16.03457         2.63843
O         35.76935        20.67454        -2.15987
O         31.04665        15.34422         2.80392
O         25.91598        28.97463        -1.20242
O         13.61737         7.35097         0.91206
O         28.14005        32.47035         1.08559
O         16.50776        34.88469         1.95360
O         16.90988        30.25207         2.22273
O         14.71199        18.28793         2.84636
O         35.75050        23.69108         1.09516
O          9.43169        26.79877        -3.02088
O         11.76031        17.24823         1.61894
O         19.84237        18.61954        -0.00737
O         30.17273        21.07557         2.13609
O         17.69190         9.63884         1.62800
O         14.58931        13.28515        -1.25879
O         27.99100        16.77634        -0.25870
O          9.64242        18.62443        -1.92891
O         17.50713        20.69469         3.21193
O         21.44643        29.63249         2.94253
O         12.57273        14.59893         2.20899
O         22.44277        14.70125        -1.09587
O         31.15352        24.69288        -1.49583
O         13.73543        31.27824        -2.43419
O         20.14842         8.07728        -1.73738
O         38.03268        19.22938        -2.10373
O         18.65844        25.25662         3.35788
O         19.79918        16.63632         3.05236
H         18.95602        16.42707         3.52068
O         25.70289         7.56366         1.35830
H         24.94806         6.97895         1.63152
O         24.36240         8.41383        -1.98084
H         23.54409         8.90204        -2.21854
O         17.62259        26.24914        -0.59563
H         16.81755        26.09879        -1.14045
O         13.71918        21.39266         3.11276
H         13.81320        20.50734         3.53380
O         19.52379        22.56003         3.85043
H         18.76349        22.07545         4.23887
O         18.81765        28.98310        -0.67725
H         18.52687        28.11464        -1.04096
O         24.81608        13.72725        -1.33344
H         24.84800        14.60352        -1.78415
O         11.81027        27.38273         0.54818
H         12.13317        26.83736         1.30901
O         28.38675         7.58991         1.24525
H         27.49468         7.43684         1.64379
O          6.85975        22.72708         0.85030
H          7.00963        23.66340         1.12323
O         20.41097        23.10069         0.34744
H         21.12779        23.60053        -0.12022
O         34.15316        10.02216        -2.26796
H         33.40384         9.44471        -2.52896
O         34.09347        22.69011        -2.01663
H         33.32710        22.17135        -2.34021
O         24.18609        12.90052         2.14833
H         24.48772        12.12492         2.66681
O         28.08954        29.37973         1.67389
H         29.02491        29.29247         1.96550
O         21.24132        36.58037         2.85718
H         20.50411        36.28940         3.44437
O         32.08382        34.36438         0.84988
H         32.06912        33.52634         1.35812
O         14.81026        13.38707         2.33976
H         14.15712        13.81206         2.94847
O         17.29353        12.55199        -1.39885
H         16.54835        13.00366        -1.85224
O         35.21938        18.17698        -1.97430
H         35.75629        18.74830        -2.58030
O         11.18086        21.31697         2.07650
H         11.85827        21.56215         2.75593
O         39.30096        18.78595         1.29873
H         40.03830        18.34559         1.77125
O         22.05308        22.61037         3.60424
H         22.78049        21.99167         3.85655
O         13.04867        24.82928        -1.83428
H         12.71528        25.35677        -2.59779
O         18.18403        12.08505         2.10286
H         17.68522        11.33819         2.51115
O         29.24950        22.17224        -1.16834
H         29.29833        23.00748        -1.68216
O         13.40032        16.07430        -1.36895
H         14.32948        15.84397        -1.59768
O          8.34592        25.22429         0.80645
H          9.13673        24.92001         1.30352
O         14.96894        31.97785         1.99789
H         15.31859        31.28729         2.60952
O         21.08147        35.25847        -0.55581
H         21.75898        35.28272        -1.27599
O         29.36492         8.66533        -2.12007
H         30.10954         9.24839        -2.37435
O         32.70764        32.90385        -2.49081
H         32.28767        33.69003        -2.91936
O         11.92563        27.10017        -3.06596
H         11.14109        27.11263        -3.67108
O         25.60999        16.37021        -1.08445
H         26.54249        16.37999        -1.41113
O         26.94136         8.53393        -1.97492
H         26.03961         8.78325        -2.28440
O         29.14437        13.64942         3.06664
H         29.46144        14.45290         3.54218
O         14.19558         9.64266         1.88396
H         13.67969         8.83071         2.10260
O         30.54733        23.68762         1.93615
H         30.57708        22.85873         2.47517
O         31.35324        35.17960        -2.64620
H         31.28254        36.05054        -3.09136
O         22.66665        34.39727         2.67096
H         22.21478        35.16599         3.10323
O         32.61784        18.52945        -1.39612
H         33.46445        18.43304        -1.90870
O         12.62734        25.24797         1.79581
H         13.26816        25.07432         2.52013
O         14.36302        27.12261        -2.15272
H         13.74276        27.44839        -2.84703
O         26.29547        25.21338        -1.24963
H         27.04767        25.58622        -1.77458
O         28.99364        16.85996         3.16743
H         29.72591        17.24674         3.69159
O         23.46474         5.87064         1.44882
H         23.52939         4.90144         1.59055
O         22.68332        24.64751        -0.26285
H         23.48927        24.39266        -0.76586
H          5.15439        18.54114        -1.59194
H          3.98455        20.69750        -1.78742
H          4.04439        23.14169        -1.95842
H          5.33413        25.22770        -2.01368
H          7.62062        14.25042        -1.61399
H          6.37394        16.35594        -1.44480
H          6.56898        27.32820        -2.11544
H          7.97632        29.59228        -1.80994
H         10.08414         9.87129        -1.48645
H          8.81104        12.02509        -1.53683
H          9.24184        31.65314        -1.90694
H         10.58296        33.82455        -1.89670
H         12.51657         5.67779        -1.66575
H         11.30677         7.82429        -1.48584
H         11.66834        35.86439        -1.47102
H         12.53468        38.16909        -0.71624
H         14.66565         4.47390        -1.61491
H         14.37024        39.47217         0.25574
H         17.03582         4.39178        -1.15856
H         17.00450        39.59295         0.72925
H         19.48250         4.32388        -0.80165
H         19.45126        39.59089         0.68480
H         21.98955         4.29116        -0.37966
H         21.92343        39.59249         0.53903
H         24.50425         4.46699        -0.99151
H         24.45844        39.50046         0.57108
H         27.00379         4.55228        -1.27640
H         26.90016        39.44512         0.15079
H         29.50504         4.52076        -1.04223
H         29.32501        39.40945        -0.30315
H         34.08042         5.72894        -0.44085
H         31.95457         4.49470        -0.66396
H         33.83963        38.18020        -1.26274
H         31.74144        39.39323        -0.86804
H         35.29621         7.91316        -0.58211
H         36.50681        10.12290        -0.72322
H         36.34365        34.17296        -1.75354
H         35.08044        36.07614        -1.33337
H         37.74491        12.10895        -0.38610
H         39.03606        14.19075        -0.19075
H         38.59425        29.48084        -2.06296
H         37.17706        31.37758        -2.55133
H         40.30299        16.31260        -0.29893
H         41.51492        18.54164        -0.69950
H         41.26634        25.19754        -1.63422
H         40.01473        27.29613        -1.67664
H         42.64047        20.63669        -1.44885
H         42.55409        23.09181        -1.66342
