         651
 CSIRO Nanostructure Databank - Neutral Graphene Oxide Data Set
C          6.57133        31.45314        -2.58659
C          6.59385        32.81047        -2.63204
C          8.98075        27.16670        -1.42133
C          8.79673        28.58622        -1.33112
C          7.81408        29.25421        -2.05102
C          8.49705        31.45618        -0.92889
C          7.51354        30.66817        -1.75764
C          8.35529        32.97314        -0.78999
C          7.51423        33.63251        -1.86773
C          8.55406        35.81992        -1.34090
C          7.58986        34.99288        -2.04059
C          8.59012        37.19269        -1.44434
C         10.84097        23.03514         0.48441
C         10.90196        24.39137         0.28317
C         10.01190        25.08705        -0.60222
C         10.66883        27.30933         0.41582
C          9.92423        26.48327        -0.63080
C         10.88488        28.70605        -0.05328
C          9.83381        29.35841        -0.63867
C         10.86580        31.53847        -0.16247
C          9.80645        30.82118        -0.63304
C         10.73403        33.00351         0.20422
C          9.65872        33.68783        -0.58448
C         10.75322        35.94218         0.03248
C          9.55275        35.13193        -0.49442
C         10.85315        37.33230        -0.41215
C          9.70062        37.98673        -0.95427
C         10.89201        40.13984        -0.81439
C          9.73168        39.37903        -1.12366
C         10.90077        41.55617        -0.89275
C         13.31057        18.89624         0.60838
C         13.28676        20.29851         1.00921
C         12.07304        20.93908         1.12750
C         12.88179        23.21825         1.88786
C         11.69196        22.36476         1.53542
C         13.18794        24.46576         1.41323
C         11.95054        25.17854         0.99492
C         13.24897        27.36930         1.12106
C         11.93512        26.66009         0.98877
C         13.33050        28.70247         0.77717
C         12.22994        29.36657        -0.02980
C         13.39824        31.58937         0.05011
C         12.09830        30.84275         0.37529
C         13.31773        33.05511         0.38584
C         12.05895        33.77572        -0.03901
C         13.29282        35.92862         0.26813
C         11.99652        35.20293         0.54314
C         13.29443        37.32294         0.04497
C         12.07311        38.03223        -0.27224
C         13.30576        40.17303        -0.25297
C         12.09593        39.44215        -0.45246
C         13.30859        41.58943        -0.40037
C         12.07519        42.30743        -0.68410
C         13.26966        44.48312        -0.64835
C         12.07393        43.73015        -0.71484
C         13.33962        45.88339        -0.62295
C         15.82506        14.69713        -0.06876
C         15.70091        16.11549        -0.21784
C         14.52207        16.81803         0.04043
C         15.68320        19.05930        -0.02699
C         14.44495        18.25329         0.14878
C         15.74991        20.39076         0.61406
C         14.60042        20.93873         1.18338
C         15.81268        23.05633         1.63403
C         14.77474        22.17122         1.86632
C         15.68894        24.49671         2.14568
C         14.41363        25.23357         1.67960
C         15.65611        27.42698         2.01177
C         14.42392        26.61728         1.57228
C         15.74796        28.83352         1.39361
C         14.55705        29.48079         0.93092
C         15.75921        31.63139         0.83537
C         14.57855        30.86529         0.65125
C         15.74692        33.06321         0.73544
C         14.48720        33.76617         0.58093
C         15.72460        35.92481         0.57465
C         14.48847        35.21887         0.47818
C         15.70702        37.33528         0.41762
C         14.52546        38.03567         0.11843
C         15.72233        40.21747         0.16961
C         14.53278        39.48624         0.00990
C         15.72935        41.62810         0.05164
C         14.52176        42.29243        -0.29995
C         15.83972        44.45248        -0.56508
C         14.53361        43.71500        -0.66708
C         15.82429        45.91302        -0.40392
C         14.57589        46.60878        -0.48824
C         15.82518        48.72459        -0.18317
C         14.61005        48.01325        -0.37991
C         15.82515        50.13780        -0.13881
C         18.30775        10.41985        -0.22415
C         18.28080        11.86569        -0.10373
C         17.10030        12.58004        -0.15628
C         18.28768        14.64579         0.43893
C         17.04929        14.00510         0.08256
C         18.35817        15.92653         1.02261
C         16.88159        16.89232        -0.70562
C         18.19094        18.97876         0.35745
C         16.97611        18.34075        -0.25858
C         18.20656        20.47447         0.29737
C         16.97118        21.12462         0.62270
C         18.23841        23.16508         1.19283
C         16.99922        22.48977         1.06271
C         18.22215        24.50310         1.82269
C         16.94902        25.28490         1.82323
C         18.24863        27.39081         2.00503
C         16.96130        26.64021         1.86509
C         18.22947        28.89909         1.79057
C         16.95032        29.55681         1.40670
C         18.20545        31.70481         1.02397
C         16.98038        30.95663         1.10996
C         18.21729        33.08383         0.84560
C         16.96283        33.78614         0.80635
C         18.17570        35.92661         1.06307
C         16.94674        35.21745         0.81408
C         18.11638        37.38112         1.28081
C         16.89392        38.11184         0.81946
C         18.09411        40.27008         1.03700
C         17.05197        39.50661         0.25526
C         18.12127        41.79144         1.04014
C         16.94720        42.37355         0.26867
C         18.25080        44.42071        -0.03126
C         17.00366        43.71720        -0.04438
C         18.27547        45.82449        -0.16918
C         17.04334        46.58210        -0.20098
C         18.31272        48.69982         0.09422
C         17.07746        48.00983        -0.08716
C         18.23810        50.12067         0.32123
C         17.01558        50.85453         0.10317
C         18.21771        53.04756         0.31519
C         17.04511        52.27874         0.12439
C         18.16411        54.46694         0.10895
C         20.57921         6.30659        -1.08643
C         20.61029         7.53705        -0.50300
C         19.35829         8.17752         0.05930
C         20.67788        10.33647         0.59116
C         19.41525         9.68985         0.05576
C         20.68603        11.84477         0.39491
C         19.55387        12.54245         0.10072
C         20.81901        14.71418         0.44149
C         19.56947        14.04092        -0.09026
C         20.77131        16.13310         0.63362
C         19.50388        16.75228         0.80137
C         20.71179        18.93596         0.56490
C         19.40833        18.23231         0.84508
C         20.65622        20.37573         0.18011
C         19.40822        21.15652         0.36052
C         20.71174        23.15499         1.04591
C         19.45876        22.52644         0.82016
C         20.79869        24.47825         1.65025
C         19.53811        25.23670         1.93515
C         20.73717        27.40451         1.59463
C         19.54807        26.70286         1.84519
C         20.70018        28.84727         1.39935
C         19.49607        29.54081         1.40257
C         20.77660        31.71384         0.95645
C         19.46772        30.93839         0.95208
C         20.76725        33.19195         1.02598
C         19.49444        33.87017         0.53683
C         20.65641        36.11157         1.07696
C         19.40691        35.31128         1.00714
C         20.59674        37.56535         1.44733
C         19.36109        38.15955         1.48653
C         20.94381        40.72157         1.71910
C         19.05135        39.58031         1.71163
C         20.72048        41.63895         0.69563
C         19.46559        42.35235         0.50706
C         20.61242        44.29211        -0.75318
C         19.46182        43.64571        -0.00699
C         20.71944        45.79359        -0.54333
C         19.51940        46.52588        -0.27030
C         20.78322        48.57856        -0.48648
C         19.55449        47.94612        -0.14531
C         20.97107        49.94517        -0.08934
C         19.33505        50.92685         0.72668
C         20.79374        52.88762         0.43490
C         19.44613        52.31786         0.58613
C         21.00105        54.23491         0.74677
C         19.18523        55.34495         0.52308
C         20.85502        57.18116         0.30554
C         19.55329        56.60805         0.05088
C         20.96132        58.59661         0.15499
C         22.83373         3.79618        -2.79462
C         21.68427         4.38305        -2.25685
C         23.00509         6.30052        -1.59027
C         21.75781         5.64861        -1.63466
C         23.11664         7.59178        -0.89680
C         21.89451         8.24766        -0.31837
C         23.10433        10.39960        -0.11074
C         21.93106         9.70806        -0.02157
C         23.24776        11.76422         0.44082
C         21.95580        12.54652         0.68596
C         23.27550        14.71594         0.74447
C         22.01242        14.02586         0.64144
C         23.30386        16.11774         0.75419
C         22.02519        16.82440         1.11858
C         23.23604        19.02647         0.41206
C         22.03783        18.38199         1.09858
C         23.19894        20.35257         0.06594
C         21.93959        21.12175         0.10138
C         23.25582        23.22608         0.69549
C         21.95202        22.55004         0.55349
C         23.28258        24.57788         0.90713
C         22.09072        25.26946         1.46191
C         23.17071        27.43025         1.02991
C         21.99708        26.72816         1.38302
C         23.17420        28.85555         1.10394
C         21.95406        29.56224         1.23842
C         23.21110        31.68089         1.49884
C         21.99169        30.97189         1.27761
C         23.08183        33.12531         1.97706
C         21.90678        33.86874         1.34132
C         23.20371        36.08547         1.62406
C         21.95975        35.35615         1.24660
C         23.21580        37.45936         1.72137
C         21.86019        38.08835         2.14522
C         23.26383        40.35975         1.05958
C         22.19556        40.01553         1.99576
C         23.24191        41.54946         0.36760
C         21.93886        42.17500         0.03669
C         23.18905        44.33487        -0.46176
C         21.91793        43.52474        -0.59277
C         23.10465        45.63485        -1.33761
C         21.89527        46.44734        -0.90835
C         23.13242        48.56885        -1.36794
C         21.92415        47.87425        -0.99467
C         23.22123        49.93160        -1.70023
C         21.58687        50.94138        -0.80015
C         23.06498        52.92864        -0.67377
C         21.84388        52.26169        -0.31294
C         23.20282        54.30091        -0.33849
C         22.09775        54.99144         0.29161
C         23.41603        57.05598         0.62325
C         22.05711        56.41773         0.43528
C         23.39031        58.58400         0.67460
C         22.16192        59.30901         0.29229
C         23.47811        61.36620        -0.04284
C         22.23566        60.69274         0.06154
C         24.06808         4.44367        -2.74382
C         25.44136         6.40996        -2.06089
C         24.18089         5.72392        -2.14908
C         25.53747         7.74172        -1.62613
C         24.27268         8.44281        -1.29599
C         25.58809        10.53967        -0.72024
C         24.28731         9.86196        -0.83489
C         25.63929        11.88307        -0.25050
C         24.49201        12.51685         0.25486
C         25.82192        14.65017         0.61943
C         24.54384        13.87011         0.93942
C         25.78666        16.15023         0.47320
C         24.49962        16.88819         0.52228
C         25.67221        19.01337        -0.08044
C         24.47627        18.27485         0.30848
C         25.68818        20.38195        -0.27805
C         24.40374        21.16084        -0.36072
C         25.70557        23.27220         0.06378
C         24.53193        22.43218         0.52764
C         25.66681        24.67047         0.15824
C         24.46613        25.35594         0.61112
C         25.47278        27.56324         0.00750
C         24.38727        26.73964         0.65558
C         25.56185        28.95167         0.57669
C         24.40991        29.59472         1.02967
C         25.76305        31.63561         1.66386
C         24.41151        30.99700         1.40100
C         25.72334        33.15372         1.80518
C         24.42030        33.88046         1.92367
C         25.71569        36.05310         2.11365
C         24.50243        35.33621         1.44468
C         25.72410        37.51948         1.73601
C         24.48818        38.17431         1.63510
C         25.70070        40.37100         1.16549
C         24.49262        39.50723         0.92669
C         25.68133        41.65727         0.44007
C         24.49250        42.17625        -0.02076
C         25.65913        44.36640        -0.46321
C         24.46196        43.48304        -0.79577
C         25.70138        45.65541        -1.22364
C         24.40593        46.40763        -1.13702
C         25.66169        48.66327        -1.47170
C         24.42689        47.90581        -1.16557
C         25.64075        50.04432        -1.65380
C         24.37145        50.73362        -1.54753
C         25.50100        53.01104        -1.49102
C         24.19874        52.23126        -1.41531
C         25.55462        54.41075        -1.02049
C         24.42191        55.05260        -0.60321
C         25.78480        57.17078        -0.23265
C         24.40174        56.57165        -0.47241
C         25.89540        58.48315         0.25514
C         24.70650        59.30457         0.51136
C         24.67625        60.70650         0.08852
C         26.73210         8.47275        -1.53550
C         28.02255        10.50012        -1.01276
C         26.77675         9.83603        -1.09647
C         28.12128        11.88362        -0.71279
C         26.90631        12.60176        -0.34052
C         28.13518        14.71654        -0.41552
C         26.96414        13.94157        -0.00761
C         28.17622        16.17129        -0.18427
C         26.99338        16.83353        -0.04224
C         28.15798        18.99258        -0.77474
C         26.88653        18.25257        -0.41500
C         28.11244        20.46126        -0.72232
C         26.91777        21.13229        -0.49475
C         28.07447        23.35312        -0.51934
C         26.89173        22.59621        -0.35533
C         28.07374        24.76835        -0.39605
C         26.84302        25.45362        -0.13459
C         28.00674        27.62905        -0.23783
C         26.80645        26.86317        -0.09185
C         28.01633        29.03369        -0.07974
C         26.75498        29.73262         0.22746
C         28.05881        31.93007         0.53430
C         26.76248        31.18279         0.60749
C         28.13601        33.28006         1.10452
C         26.96165        33.94720         1.50854
C         28.21480        36.04117         1.52538
C         26.99733        35.33549         1.72345
C         28.22124        37.50103         1.47834
C         26.97818        38.19283         1.57754
C         28.26812        40.32729         1.14095
C         27.00972        39.65566         1.45299
C         28.25961        41.71959         0.63977
C         26.97385        42.35387         0.25401
C         28.20024        44.61832         0.07422
C         26.91293        43.83521         0.12888
C         28.20427        45.96263        -0.60984
C         26.96615        46.42790        -1.33857
C         28.21097        48.55761        -1.96048
C         26.89403        47.88437        -1.72972
C         28.37095        50.14318        -2.00057
C         26.89918        50.80508        -1.95445
C         28.02166        52.92968        -1.08599
C         26.82161        52.29114        -1.70531
C         28.02418        54.27986        -0.86966
C         26.86010        55.14052        -1.29045
C         26.92017        56.47307        -0.61572
C         29.36959        12.52785        -0.69396
C         30.69722        14.75453        -0.73428
C         29.44246        13.97671        -0.77515
C         30.72045        16.12425        -0.59807
C         29.49626        16.89856        -0.14432
C         30.68676        18.98946        -1.11781
C         29.43881        18.30064        -0.65474
C         30.68140        20.47421        -0.83762
C         29.37726        21.17287        -0.97180
C         30.62049        23.35636        -0.58332
C         29.33640        22.66523        -0.87336
C         30.57987        24.84254        -0.60014
C         29.26998        25.54794        -0.58645
C         30.49327        27.72418        -0.73240
C         29.24851        26.93014        -0.49033
C         30.56527        29.07726        -0.15535
C         29.29755        29.67866         0.40159
C         30.59159        31.83601         0.71718
C         29.33324        31.18968         0.29800
C         30.64270        33.20264         1.06205
C         29.38551        33.93526         1.15563
C         30.74018        35.98134         1.18040
C         29.42072        35.32154         1.36206
C         30.70400        37.45424         1.02269
C         29.43459        38.19262         1.23543
C         30.69768        40.34988         0.82217
C         29.46210        39.62644         1.12868
C         30.72473        41.71339         0.60665
C         29.49704        42.55300         0.89820
C         30.68411        44.56822        -0.06994
C         29.48415        43.90534         0.19830
C         30.71782        45.95640        -0.51727
C         29.50516        46.59015        -0.95727
C         31.04280        48.92819        -0.81710
C         29.43935        47.78070        -1.68916
C         30.44239        50.12443        -0.37066
C         29.28556        50.75934        -0.90401
C         29.10351        52.10937        -0.61096
C         31.93738        16.88009        -0.62751
C         33.13132        19.03340        -0.55890
C         31.95533        18.27934        -0.70611
C         33.14073        20.45580        -0.61410
C         31.86992        21.17036        -0.74163
C         33.09207        23.31744        -0.68219
C         31.90278        22.62234        -0.74048
C         33.12304        24.78510        -0.93393
C         31.82822        25.53929        -1.03120
C         33.11314        27.74978        -0.82543
C         31.80690        27.03637        -1.02232
C         33.07595        29.18121        -0.32639
C         31.75001        29.73042         0.06209
C         32.91641        31.53423         1.30634
C         31.75002        31.03876         0.70485
C         32.91000        32.88424         1.75667
C         31.87291        33.78918         1.49970
C         33.33207        36.01289         1.20557
C         32.02227        35.31441         1.73378
C         33.27096        37.36842         0.93240
C         32.01948        38.17840         1.31436
C         33.17705        40.25325         0.23693
C         31.91476        39.53639         0.60893
C         33.16523        41.71906         0.18134
C         31.94692        42.42399         0.28191
C         33.17070        44.53740        -0.03586
C         31.93165        43.83766         0.08044
C         33.14405        45.95943        -0.09582
C         31.96455        46.67649        -0.34314
C         31.95213        48.11133        -0.14845
C         34.32511        21.18761        -0.46696
C         35.52600        23.35059        -0.35839
C         34.34965        22.61593        -0.51074
C         35.57167        24.78967        -0.44323
C         34.36702        25.54212        -0.70119
C         35.57025        27.67060        -0.44478
C         34.37405        26.97248        -0.63346
C         35.63080        29.18350        -0.22878
C         34.29673        29.70360         0.34428
C         36.15274        31.83875         1.36230
C         34.13343        30.73086         1.23541
C         36.06956        33.28544         1.34480
C         34.95559        33.99308         1.72995
C         35.87473        36.15451         0.86304
C         34.74401        35.49106         1.63078
C         35.74344        37.45718         0.43978
C         34.47238        38.14795         0.58690
C         35.64425        40.26685         0.00809
C         34.44942        39.51750         0.34360
C         35.60960        41.65940        -0.10948
C         34.40241        42.41640         0.02822
C         34.39108        43.82132        -0.03060
C         36.77688        25.47593        -0.33878
C         38.10241        27.64443        -0.51369
C         36.82761        26.90988        -0.78237
C         38.14146        28.94778        -0.11327
C         36.92833        29.59032         0.55567
C         38.22824        31.82162         0.10657
C         37.09673        31.11048         0.67273
C         38.30357        33.21738         0.15920
C         37.27131        33.98931         0.86515
C         38.21195        36.10501        -0.17668
C         37.17963        35.48614         0.68276
C         38.06843        37.44722        -0.49185
C         36.89115        38.16690        -0.12247
C         36.84063        39.54695        -0.26902
C         39.33861        29.69664        -0.38380
C         40.50413        31.81162        -0.89263
C         39.36186        31.08135        -0.39981
C         40.51097        33.17539        -0.93749
C         39.39625        33.93838        -0.43201
C         39.33649        35.32926        -0.57940
O         21.52226        35.83072        -0.11370
O         32.44821        25.04538        -2.25307
O         37.78531        34.90571         1.89825
O         25.19283        33.56309         3.12147
O         30.67400        24.10833         0.68886
O         33.25560        28.87608        -1.75341
O         28.51424        14.48078        -1.81643
O         30.60442        48.41242        -2.07083
O         34.01050        33.32030         2.49521
O         30.80990        36.59260        -0.15516
O         26.85531        51.76057        -3.05380
O         28.07352        45.86791         0.84668
O         26.22499        40.38712         2.49970
O         32.31120        39.57276        -0.78445
O         11.52846        25.92516         2.20662
O         32.08181        38.30259         2.70906
O         20.48691        50.26203         1.19338
O         26.17409        15.50053         1.76628
O         27.42165        48.10995        -3.09094
O         15.35144        43.97768        -1.87304
O         22.05425        50.61092        -2.08341
O         29.32136        22.03403        -2.19450
O         21.70786        37.94459         3.43001
O         13.76129        22.56136         2.75844
O         21.91706        42.36041        -1.47551
O         22.86165         7.51731         0.54476
O         17.11422        37.89447         2.24615
O         28.99107        50.41908        -3.16834
O         27.84074        41.75102        -0.77775
O         20.67692        19.31436        -0.84772
O         24.59345        52.91677        -2.64482
O         16.35163        19.10475        -1.34251
O         25.89739        44.46744         0.96983
O         20.04254        54.85010         1.54591
O         19.89969        40.33053         2.55677
O         18.43404        18.71928         1.83525
O         21.74645        24.65531         2.75896
O         17.67105        16.46160        -1.53837
O         26.27049        30.85024        -0.69961
O         24.05503        59.10205         1.86867
O         24.42823        47.13108         0.13562
O         27.26278        18.42173        -1.83836
O          7.35479        30.81387        -0.27281
O         26.48365        45.57698        -2.43768
O         22.67670        11.92866         1.79464
O         23.93112         9.50539        -2.24681
O          9.61009        35.68739         0.89533
O         20.18674        31.19571        -0.29699
O         18.21325        28.33129         3.14840
O         35.16267        31.16316         2.06874
O         28.66204        31.82774        -0.80881
O         31.00586        27.58791        -2.10597
O         21.82530        22.16676        -0.93143
O         21.58765        16.39411         2.41950
O         18.89399        24.64489         3.12070
O         19.58060        14.27297        -1.54142
H         18.97841        15.03082        -1.73787
O         15.63839        24.44680         3.59085
H         14.83264        23.93930         3.83650
O         20.28026        44.18561        -2.18169
H         20.42432        43.23995        -2.42363
O         24.77242        35.29022         0.01891
H         23.92092        35.27536        -0.46827
O         26.91415        55.36886        -2.73659
H         26.94764        54.49094        -3.17692
O         18.19268         7.69236        -0.60284
H         18.25996         7.91286        -1.55414
O         24.58670        13.57747         2.35998
H         24.90030        14.39830         2.80500
O         23.91108        57.09593        -1.72902
H         24.50559        56.77479        -2.44131
O         12.14474        33.93604        -1.48467
H         12.47409        33.08120        -1.85535
O         22.95171        45.29594        -2.71932
H         22.03961        44.93751        -2.84451
O         10.35467        33.05973         1.62075
H          9.36544        33.04497         1.64210
O         36.83721        26.79697        -2.27119
H         35.97910        26.40152        -2.54091
O         25.01993        27.76055        -1.38876
H         25.23683        26.94636        -1.89119
O         17.51767        39.31350        -1.11721
H         17.45800        40.17444        -1.58295
O          9.69887        27.44783         1.49557
H          9.94176        26.77209         2.17584
O         22.11874        18.81484         2.47232
H         21.89660        17.99918         3.00572
O         24.57321        39.15358        -0.49553
H         23.79588        38.60191        -0.72549
O         29.49126        42.85847         2.32107
H         30.32310        43.32664         2.54323
O         13.61126        31.60642        -1.42585
H         14.51366        31.96426        -1.57764
O         22.70360        33.03866         3.37856
H         23.53681        33.05790         3.90560
O         19.57667        33.94859        -0.91844
H         20.34415        34.53507        -1.12037
O         34.85818        35.93163         3.02020
H         34.01577        35.66903         3.46668
O         22.68511        40.17876         3.30815
H         22.26623        39.47084         3.87940
O         24.50071        43.18234        -2.19121
H         23.69658        42.65590        -2.40488
O         24.28083        21.56923        -1.73712
H         23.35325        21.88893        -1.86601
O          7.66069        33.19149         0.49136
H          7.07545        32.40198         0.61443
O         29.31158        29.43456         1.85558
H         29.25711        28.46705         2.00712
O         23.91459        56.55725         1.88283
H         24.15896        57.35252         2.41968
O         17.32013        16.38752         1.75179
H         17.57096        17.26827         2.14295
O         30.64719        18.87261        -2.59103
H         29.87574        19.38846        -2.91400
O         11.92886        35.14980         1.97808
H         11.00704        34.88780         2.21301
O         36.79725        29.01093         1.86969
H         37.50689        29.36721         2.44259
O         23.19897        44.71601         0.91990
H         23.95827        45.31428         1.10442
O         32.03605        35.60062         3.15402
H         32.05118        36.61032         3.22497
O         17.96896        42.27302         2.40086
H         18.64145        41.80231         2.94638
O         10.86868        22.22421         2.73386
H         11.46966        21.97589         3.46839
O         20.70706        10.05540         2.01599
H         21.46915        10.56529         2.38614
O         25.58971        36.01112         3.54958
H         24.84172        36.58808         3.81231
O         11.98185        30.83728         1.81618
H         11.46241        31.63095         2.09439
O         12.64824        29.18569        -1.41995
H         13.22307        29.94331        -1.68724
O         35.77916        29.80679        -1.52466
H         34.98618        29.55386        -2.05920
O         29.75215        17.04474         1.32695
H         28.90522        17.28371         1.76317
O         24.86409        21.92677         1.85557
H         24.83051        22.67392         2.48976
O         26.26985        31.10517         2.91582
H         25.91902        31.67517         3.63673
O         15.47635        27.66508         3.43289
H         16.34689        27.96284         3.78872
H          5.86822        30.89973        -3.22716
H          5.89895        33.33263        -3.30849
H          8.32552        26.59056        -2.09369
H          7.14761        28.70044        -2.72984
H          6.91520        35.48484        -2.76000
H          7.80552        37.71299        -2.01538
H         10.08481        22.43324        -0.04167
H          9.32153        24.49043        -1.21935
H          8.83874        39.89714        -1.50462
H          9.96412        42.08074        -1.13509
H         12.37835        18.31986         0.71526
H         11.18454        20.31843         0.92023
H         11.11146        44.25591        -0.80976
H         12.40445        46.46330        -0.65653
H         14.89929        14.09885        -0.08953
H         13.62147        16.24735         0.31856
H         13.67141        48.58377        -0.44689
H         14.88232        50.68387        -0.29011
H         17.38064         9.90116        -0.51537
H         16.15687        12.04928        -0.35489
H         16.09944        52.81134        -0.05772
H         17.30881        54.87242        -0.45205
H         19.61175         5.78935        -1.18029
H         19.27702         7.85743         1.13596
H         18.84433        57.19617        -0.55017
H         20.04986        59.15589        -0.10545
H         22.76331         2.80546        -3.26521
H         20.72080         3.85643        -2.30904
H         23.47436        62.42972        -0.32134
H         21.30956        61.24568        -0.15235
H         24.96073         3.96302        -3.16880
H         26.35195         5.87997        -2.37888
H         26.89039        58.95115         0.31385
H         25.62372        61.21153        -0.14824
H         27.68145         7.98471        -1.80318
H         28.93737         9.94913        -1.27716
H         28.88565        54.75055        -0.37164
H         27.90715        56.94498        -0.49011
H         30.29347        11.93157        -0.71899
H         31.63627        14.22055        -0.94968
H         30.89227        50.59308         0.52066
H         29.91365        52.63558        -0.07998
H         32.89452        16.33722        -0.56781
H         34.07593        18.51081        -0.34151
H         34.08869        46.51146         0.01259
H         32.58310        48.52646         0.65215
H         35.27481        20.64866        -0.33064
H         36.47442        22.81693        -0.19709
H         36.54136        42.19668        -0.33992
H         35.33826        44.37084        -0.12887
H         37.71677        24.91851        -0.21133
H         39.00622        27.20212        -0.96383
H         38.86508        37.97506        -1.03692
H         37.72704        40.09293        -0.62352
H         40.21216        29.14207        -0.76205
H         41.36485        31.23890        -1.26778
H         41.37369        33.71471        -1.35450
H         40.15595        35.84040        -1.10730
