         276
 CSIRO Nanostructure Databank - Neutral Graphene Oxide Data Set
C         30.40093        32.04275         0.64833
C         30.47548        33.23983         0.26882
C         30.38653        36.15412        -0.72343
C         30.49962        37.39727        -0.88571
C         30.42054        40.35851         0.02125
C         30.33482        41.53885         0.43093
C         32.67244        29.07068         0.77351
C         31.63608        29.74677         0.85185
C         32.70333        31.73098         0.07911
C         31.51292        31.14783         0.57105
C         32.72506        33.12635        -0.41234
C         31.53202        33.99868        -0.25105
C         32.82139        36.04360        -0.80598
C         31.58649        35.34986        -0.62965
C         32.85455        37.54192        -1.17920
C         31.56986        38.27915        -0.77183
C         32.78386        40.24730         0.13494
C         31.56956        39.57051        -0.24659
C         32.75115        41.60924         0.62029
C         31.46703        42.31899         0.76016
C         32.70246        44.23973         1.33413
C         31.60116        43.67014         1.14200
C         35.32346        27.45302         0.95356
C         35.22122        28.76698         0.57419
C         33.97199        29.44291         0.21569
C         35.27479        31.69853        -0.09837
C         33.96702        30.96276        -0.09358
C         35.31393        33.09039        -0.36851
C         34.06104        33.84566        -0.66718
C         35.28857        36.00907        -0.64998
C         34.06501        35.34064        -0.67452
C         35.37619        37.51667        -0.90721
C         34.07151        38.23671        -0.60122
C         35.26608        40.09075         0.52111
C         34.02131        39.49105        -0.03014
C         35.23449        41.53432         0.98395
C         33.96928        42.31233         0.87982
C         35.21855        44.45002         1.20075
C         34.01476        43.71802         1.18693
C         35.47788        45.81392         1.33651
C         37.78574        27.24754         0.63194
C         36.55607        26.96946         1.02768
C         37.74491        28.78051         0.12669
C         36.51782        29.57806         0.67294
C         37.72626        31.66455        -0.07673
C         36.49136        30.99456         0.09463
C         37.77074        33.06154        -0.34135
C         36.54695        33.77317        -0.46431
C         37.86390        35.96119        -0.74200
C         36.53992        35.22571        -0.77754
C         37.86796        37.40997        -0.38339
C         36.60778        38.14884        -0.27207
C         37.78760        40.00789         0.96137
C         36.56752        39.41694         0.25173
C         37.83337        41.56492         0.95282
C         36.53421        42.30494         1.05896
C         37.78486        44.53243         0.88016
C         36.47409        43.76872         0.61998
C         37.81540        46.04212         0.87153
C         36.51122        46.52331         1.16153
C         40.19959        24.37685         0.69461
C         39.12676        25.04584         0.78241
C         40.24855        27.30685         0.63287
C         39.02409        26.46315         0.26584
C         40.31893        28.67808        -0.01155
C         39.06581        29.48826         0.46996
C         40.31862        31.57142        -0.35950
C         38.99698        30.87900        -0.16191
C         40.32338        33.04610        -0.29041
C         39.05215        33.78038        -0.38613
C         40.40789        35.87435        -0.55437
C         39.07865        35.15884        -0.47258
C         40.34194        37.34127        -0.18295
C         39.06586        38.01498        -0.06604
C         40.35020        40.18785         0.29460
C         39.10029        39.38846         0.50150
C         40.37882        41.70896         0.40117
C         38.95967        42.30992         0.18645
C         40.22294        44.60817         0.08851
C         39.04446        43.80400         0.56762
C         40.29894        46.06400         0.44668
C         39.02009        46.72104         0.78329
C         40.27915        48.82755         0.87597
C         39.25327        48.12497         0.90717
C         42.54150        24.46801         0.62833
C         41.43091        23.80897         0.86053
C         42.41517        27.72397         1.80890
C         41.11678        27.02139         1.64949
C         42.73623        28.84438         0.88553
C         41.54893        29.49946         0.35670
C         42.78620        31.58833         0.14393
C         41.55601        30.84870         0.06047
C         42.78458        32.95569        -0.04630
C         41.53266        33.68563        -0.12025
C         42.83880        35.87160         0.12376
C         41.49380        35.14798         0.26243
C         42.81714        37.35466        -0.02317
C         41.51485        38.04732        -0.11441
C         42.82790        40.24305         0.00493
C         41.51174        39.53085        -0.42370
C         42.80794        41.71945        -0.35727
C         41.43293        42.34823        -0.54936
C         42.76727        44.55209        -0.26558
C         41.43279        43.87802        -0.39676
C         42.75661        46.02230         0.02870
C         41.46638        46.76578         0.21707
C         42.86106        48.80531         0.47485
C         41.47130        48.34778         0.07984
C         43.71936        25.06671         0.72702
C         45.27812        27.10030         0.63695
C         44.07364        26.30958         0.23007
C         45.26934        28.65021         0.83097
C         43.99684        29.40705         0.71345
C         45.33746        31.53726         0.06007
C         44.06114        30.92068         0.60836
C         45.34590        32.93246        -0.23956
C         44.06151        33.65835        -0.34280
C         45.33056        35.94065        -0.37156
C         44.05762        35.16676        -0.39635
C         45.32213        37.30212        -0.43600
C         44.04176        38.04546        -0.53201
C         45.31069        40.29379        -0.60538
C         44.03981        39.53551        -0.57512
C         45.25601        41.65332        -0.61316
C         43.97422        42.38325        -0.60652
C         45.24724        44.61621        -1.08015
C         43.88055        43.85279        -1.06365
C         45.17492        46.10242        -0.64182
C         44.03106        46.76165        -0.26269
C         43.83184        48.12696         0.07952
C         47.42950        27.33671        -0.45259
C         46.53621        26.61245         0.02307
C         47.54658        28.69542        -0.92562
C         46.57172        29.40676         0.61857
C         47.84926        31.56159         0.24304
C         46.52656        30.83060         0.24042
C         47.77829        33.02180        -0.14428
C         46.57610        33.67346        -0.34201
C         47.85764        35.87428        -0.01705
C         46.59551        35.16531        -0.73206
C         47.86064        37.40040        -0.15404
C         46.57212        38.11728        -0.35978
C         47.82078        40.29807        -0.31061
C         46.61607        39.55514        -0.89857
C         47.73233        41.68601        -0.08225
C         46.56390        42.40553        -0.76626
C         47.67822        44.56521        -0.10618
C         46.31855        43.83833        -0.24506
C         47.47045        45.89565        -0.34158
C         46.49689        46.65461        -0.70409
C         50.18551        28.81095        -0.71203
C         48.86697        29.42925        -0.95707
C         50.33093        31.53914        -0.45978
C         48.95941        30.90237        -0.58457
C         50.36952        32.98715        -0.02343
C         49.07473        33.74533        -0.04918
C         50.44772        35.90669        -0.17683
C         49.13699        35.18064        -0.55585
C         50.42755        37.43636        -0.20723
C         49.13065        38.17740        -0.57261
C         50.08296        40.27880         0.60953
C         49.01849        39.60202        -0.02137
C         49.98509        41.66862         0.87479
C         48.81664        42.37735         0.50829
C         50.04898        44.42394         0.82463
C         48.65402        43.89273         0.80989
C         51.22281        29.29847        -0.22446
C         52.54221        31.47645         0.54656
C         51.46317        30.47907         0.62663
C         52.65489        32.71245         0.52315
C         51.73654        33.74004        -0.16988
C         52.81826        36.07346         0.35993
C         51.61752        35.11756         0.52604
C         52.60225        37.30225         0.62362
C         51.51099        38.14702         0.50823
C         52.45345        40.43626         0.97494
C         51.30682        39.47864         1.14227
C         52.44459        41.66096         1.09584
C         51.22757        42.41747         1.54585
C         51.07672        43.85490         1.17835
O         43.09320        27.44163         2.79993
O         43.86817        34.41457        -1.61872
O         49.74116        33.38585         1.21205
O         33.30462        33.26377        -1.76147
O         38.67775        44.06672         1.94358
O         37.25747        35.58730        -2.04028
O         43.10420        36.71026         1.28618
O         46.66769        35.26448        -2.11001
O         33.88505        29.91811        -1.13829
O         35.12853        40.44982         1.96013
O         45.39293        27.65407         1.93342
O         50.94296        36.63008        -1.31860
O         39.58404        30.98855        -1.49233
O         47.18825        38.02570         0.98769
O         40.11208        39.53935         1.56797
O         43.02868        44.99280         1.08111
O         48.75701        30.47864        -1.97199
O         37.35842        42.07904         2.22594
O         40.50421        44.47009        -1.35554
O         43.81989        38.75104        -1.80394
O         36.67936        29.80199         2.11494
H         36.42025        28.97377         2.57666
O         41.30367        39.62452        -1.83933
H         42.07912        39.20355        -2.28467
O         39.01525        26.31085        -1.18064
H         38.19378        25.83487        -1.42827
O         47.49007        29.10578         1.61148
H         47.17570        28.29002         2.07090
O         40.82212        42.04551         1.72870
H         40.25065        41.56038         2.36771
O         45.68094        44.66617        -2.46564
H         46.35538        45.37856        -2.54345
O         43.34116        43.81134        -2.40773
H         44.07178        44.01994        -3.03656
O         48.15181        43.97510         2.16474
H         48.07388        44.92259         2.40695
O         49.15890        35.12228        -1.97951
H         48.21187        35.10465        -2.33477
O         51.09876        42.24686         2.93993
H         51.80647        42.74824         3.39548
O         49.12613        38.30461        -1.99939
H         49.51859        37.47927        -2.37416
O         36.26489        43.74898        -0.80878
H         36.20330        44.67116        -1.13554
O         37.65397        39.57629         2.32950
H         36.86068        40.03337         2.70221
O         51.41574        35.00121         1.90588
H         51.93609        34.24257         2.24560
O         51.00522        30.26806         1.89645
H         51.20275        31.03443         2.46975
O         38.55929        42.16358        -1.17877
H         39.34190        42.32558        -1.76912
O         41.07215        42.09969        -1.92373
H         41.68188        42.64052        -2.48064
O         46.73840        39.49565        -2.32834
H         46.90575        40.41382        -2.64606
O         52.11736        33.94292        -1.49253
H         52.04750        33.08774        -1.97529
O         45.74164        43.72340         1.06023
H         46.45213        43.52137         1.71907
O         44.15343        31.29275         2.04335
H         43.37777        30.90930         2.50794
O         43.49119        26.78030        -0.90238
H         42.80644        26.15319        -1.21569
O         47.77933        35.56354         1.37093
H         47.36914        36.33980         1.82412
O         46.94928        42.38473        -2.16363
H         46.42760        43.07650        -2.64192
O         40.80075        35.86788        -1.95101
H         40.71573        34.95539        -2.30087
O         40.95396        26.04316         2.56091
H         41.75889        26.06742         3.13598
O         39.26515        29.63170         1.88270
H         38.41127        29.93137         2.28847
O         51.10376        39.29986         2.54141
H         51.04617        40.19426         2.95527
O         35.57388        37.65467        -2.35719
H         36.26797        36.98957        -2.61209
O         50.99809        31.50218        -1.70159
H         50.51161        30.88163        -2.29647
O         41.26644        48.64570        -1.27666
H         41.25471        49.61734        -1.39617
O         46.79715        28.91162        -2.05862
H         47.20853        29.64577        -2.57363
O         37.60813        28.72866        -1.27599
H         38.50965        28.73676        -1.68939
O         32.90887        37.62211        -2.62491
H         33.86636        37.59100        -2.88570
O         41.10236        35.17118         1.64946
H         41.61550        35.89695         2.08205
O         48.34460        31.45107         1.60365
H         47.72386        31.92559         2.19511
O         42.96077        40.13367         1.43757
H         42.30241        40.74086         1.85496
O         40.31809        28.56284        -1.45312
H         40.19582        27.61367        -1.69064
