         429
 CSIRO Nanostructure Databank - Neutral Graphene Oxide Data Set
C          1.16611         2.08849        -1.00754
C          1.13746         3.51502        -0.83145
C          2.31370         1.36492        -0.88423
C          2.25928         4.23843        -0.51550
C          1.14102         6.55760        -0.83913
C          1.17287         7.90607        -0.78621
C          2.35145         5.70962        -0.77565
C          2.41978         8.70095        -0.68752
C          1.21885        10.91362        -0.49944
C          1.20673        12.28951        -0.35833
C          2.39578        10.13820        -0.30505
C          2.35895        12.99820         0.07075
C          1.21467        15.22395         0.06014
C          1.24857        16.56336        -0.11891
C          2.42261        14.41164         0.11438
C          2.53335        17.23609        -0.52115
C          2.56783        18.72520        -0.30670
C          3.50990         1.97402        -0.30220
C          3.47940         3.51869        -0.10210
C          4.83845         1.37840        -0.46949
C          4.78551         4.19287        -0.00782
C          3.64606         6.42108        -0.46293
C          3.69748         7.92802        -0.41848
C          4.73887         5.65412         0.20850
C          4.83684         8.61437         0.24108
C          3.57620        10.75210         0.15131
C          3.51973        12.19190         0.48227
C          4.78421        10.01349         0.41550
C          4.85433        12.95537         0.71895
C          3.68586        15.09173         0.20719
C          3.73902        16.52025         0.04355
C          4.89064        14.38975         0.43915
C          4.93236        17.19838         0.20568
C          3.67722        19.38192         0.04647
C          4.95079        18.68850         0.44843
C          5.99130         2.06265        -0.20735
C          5.97702         3.49101         0.08751
C          7.29654         1.31790        -0.40772
C          7.24556         4.20016         0.29192
C          6.00924         6.38303         0.52055
C          6.03828         7.86191         0.43797
C          7.26552         5.61410         0.45351
C          7.27230         8.49781         0.57383
C          5.99884        10.73236         0.87095
C          6.10696        12.20209         0.68146
C          7.31829         9.93640         0.84695
C          7.31735        12.87527         0.62669
C          6.15178        15.04758         0.37494
C          6.17523        16.48173         0.27195
C          7.37138        14.31184         0.45312
C          7.39681        17.17325         0.12915
C          6.21174        19.33262        -0.04801
C          7.40131        18.61523        -0.07450
C          8.53135         2.05076         0.06810
C          8.47442         3.49059         0.29259
C          9.70311         1.36700         0.17758
C          9.71099         4.19891         0.40451
C          8.48582         6.33088         0.44172
C          8.49905         7.77029         0.49123
C          9.72045         5.62307         0.39049
C          9.72581         8.47514         0.42787
C          8.56892        10.64488         0.59239
C          8.58706        12.11714         0.70617
C          9.73756         9.92140         0.38301
C          9.85638        12.82986         0.34823
C          8.61986        14.99927         0.25789
C          8.63365        16.44724         0.08427
C          9.82400        14.28437         0.09264
C          9.83519        17.13005        -0.13791
C          8.65039        19.26891        -0.30358
C          9.85485        18.55723        -0.32554
C         10.95447         2.02052         0.71079
C         10.95562         3.49995         0.41216
C         12.24043         1.31458         0.36981
C         12.14967         4.19942         0.24754
C         10.95684         6.33379         0.34862
C         10.95607         7.76406         0.35703
C         12.18049         5.62577         0.23521
C         12.19010         8.46897         0.28964
C         10.99300        10.59582         0.13037
C         10.94942        12.02954        -0.32860
C         12.17560         9.89963         0.12299
C         12.27354        12.74524        -0.26159
C         11.06144        14.91824        -0.21887
C         11.16757        16.42051        -0.06093
C         12.23503        14.17611        -0.39150
C         12.18360        17.07259        -1.02191
C         11.11068        19.23818        -0.47374
C         12.30576        18.54631        -0.68555
C         13.42465         1.98916         0.14299
C         13.38975         3.45915        -0.04297
C         14.69314         1.34368         0.05422
C         14.69949         4.23321        -0.02275
C         13.43088         6.34579         0.25406
C         13.42131         7.76982         0.31503
C         14.67003         5.66795         0.27285
C         14.66483         8.49578         0.50072
C         13.47641        10.55021        -0.27530
C         13.46600        12.05442        -0.19207
C         14.64376         9.90457         0.42993
C         14.73803        12.74889        -0.18444
C         13.50937        14.84150        -0.73925
C         13.52627        16.32385        -1.01063
C         14.76738        14.15274        -0.41664
C         14.79325        17.02952        -0.75471
C         13.55596        19.18117        -0.67524
C         14.78866        18.46637        -0.69239
C         15.91894         2.05855         0.08375
C         15.94062         3.48199         0.15936
C         17.17159         1.37431         0.15804
C         17.14384         4.20049         0.37519
C         15.89007         6.35550         0.57867
C         15.86969         7.76978         0.74271
C         17.10996         5.60739         0.63120
C         17.03729         8.50287         1.38373
C         15.87232        10.68194         0.57769
C         15.94059        12.05371         0.03316
C         17.13484         9.98453         0.96774
C         17.19551        12.73642         0.02499
C         15.98210        14.85858        -0.42310
C         15.98468        16.30396        -0.56789
C         17.20580        14.15318        -0.18854
C         17.23202        17.00004        -0.46354
C         16.01835        19.14513        -0.60018
C         17.24230        18.44260        -0.53019
C         18.36966         2.06862         0.25499
C         18.38639         3.48732         0.33959
C         19.67545         1.30524         0.35842
C         19.64425         4.20847         0.35902
C         18.37575         6.27923         0.98086
C         18.37273         7.76155         1.27180
C         19.65774         5.61102         0.63852
C         19.63447         8.51396         1.04277
C         18.38408        10.51898         0.27278
C         18.41879        12.03382         0.24654
C         19.66136         9.84681         0.72738
C         19.65152        12.72412         0.26878
C         18.44339        14.85686        -0.15566
C         18.44447        16.28653        -0.30924
C         19.66020        14.15165         0.05827
C         19.69481        16.98756        -0.32257
C         18.47331        19.13117        -0.49231
C         19.70117        18.44139        -0.42717
C         20.81979         2.08196        -0.31032
C         20.85513         3.52689         0.13628
C         22.13959         1.38381        -0.16173
C         22.08804         4.22206         0.22689
C         20.86019         6.31252         0.73525
C         20.90178         7.72745         1.30996
C         22.08673         5.62572         0.50231
C         22.14939         8.48673         0.92743
C         20.91081        10.60775         0.71601
C         20.89440        12.02809         0.49947
C         22.12411         9.91868         0.90489
C         22.13302        12.77095         0.47027
C         20.89860        14.86784         0.00858
C         20.89385        16.27827        -0.21656
C         22.13079        14.17790         0.20011
C         22.19633        16.96370        -0.55750
C         20.91962        19.14191        -0.41094
C         22.17413        18.47261        -0.41460
C         23.32852         2.06451        -0.03519
C         23.33159         3.51461         0.11428
C         24.59004         1.36374        -0.06332
C         24.55138         4.21538         0.18040
C         23.32914         6.33963         0.51970
C         23.32107         7.77377         0.70020
C         24.53482         5.63408         0.31612
C         24.61740         8.49511         0.65985
C         23.37756        10.70908         1.22893
C         23.36967        12.11162         0.68025
C         24.66990         9.95992         0.91884
C         24.60325        12.81792         0.61020
C         23.36663        14.93096         0.29636
C         23.38264        16.31656         0.10451
C         24.58899        14.22004         0.54167
C         24.53571        17.19569         0.52286
C         23.36172        19.16484        -0.41225
C         24.66781        18.42804        -0.40131
C         25.80054         2.03333        -0.09005
C         25.80862         3.49318         0.00338
C         27.05423         1.32464        -0.18165
C         27.00321         4.16422        -0.13177
C         25.81246         6.38238         0.28685
C         25.73297         7.84757        -0.12337
C         27.07278         5.62520         0.01037
C         27.04586         8.58015        -0.00122
C         25.88343        10.70868         0.50743
C         25.87359        12.08992         0.51879
C         27.08717         9.95596         0.18440
C         27.11380        12.83070         0.32827
C         25.86186        14.95704         0.65154
C         25.87405        16.46522         0.60574
C         27.10283        14.20926         0.39445
C         27.10635        17.18395         0.16336
C         25.84328        19.26152         0.03975
C         27.06787        18.65372         0.19049
C         28.25824         1.97493        -0.42150
C         28.20037         3.44280        -0.61900
C         29.53254         1.32904        -0.43972
C         29.45999         4.20485        -0.89910
C         28.30050         6.35342        -0.37330
C         28.24709         7.86126        -0.56051
C         29.45866         5.65868        -0.56184
C         29.52502         8.57065        -0.24040
C         28.32825        10.69252         0.01099
C         28.35709        12.10047         0.10518
C         29.55811         9.96546        -0.16255
C         29.58705        12.79755        -0.07356
C         28.34711        14.99441         0.36652
C         28.27407        16.42918        -0.00581
C         29.64191        14.25564         0.09362
C         29.46135        16.99280        -0.52719
C         28.27092        19.39059         0.61011
C         29.50736        19.06890         0.06520
C         30.74849         1.99704        -0.65095
C         30.76347         3.42232        -1.18913
C         31.99739         1.34294        -0.54190
C         32.04149         4.14578        -0.84626
C         30.74999         6.32034        -0.30417
C         30.75988         7.80917        -0.10737
C         32.02115         5.57977        -0.51319
C         32.05920         8.56057        -0.23653
C         30.81185        10.69124        -0.27969
C         30.80472        12.11963        -0.32135
C         32.03268        10.01160        -0.41571
C         32.03993        12.82500        -0.56020
C         30.82182        14.99028        -0.39877
C         30.73415        16.37899        -0.53733
C         32.04705        14.28092        -0.64344
C         31.92503        17.24679        -0.76413
C         30.84696        19.29837         0.44824
C         31.98511        18.62098        -0.13284
C         33.24114         2.01936        -0.65452
C         33.24635         3.47859        -0.75984
C         34.47108         1.35130        -0.49774
C         34.50926         4.20483        -0.67320
C         33.25843         6.35034        -0.81681
C         33.26148         7.84106        -0.74085
C         34.53403         5.62573        -0.73060
C         34.54186         8.55740        -0.61189
C         33.27282        10.69257        -0.56834
C         33.24386        12.11038        -0.69074
C         34.52175         9.97712        -0.54592
C         34.52119        12.79942        -0.94506
C         33.21891        15.00609        -0.85569
C         33.23495        16.48072        -0.91915
C         34.51798        14.32480        -0.99231
C         34.50575        17.15330        -0.59138
C         33.22617        19.21195        -0.00438
C         34.48018        18.66580        -0.65122
C         35.70944         2.04298        -0.45067
C         35.73162         3.48068        -0.55426
C         36.94241         1.36447        -0.27488
C         36.97591         4.16984        -0.54060
C         35.72279         6.37931        -0.67376
C         35.72700         7.80256        -0.59338
C         36.99333         5.62872        -0.75594
C         36.97280         8.53103        -0.25243
C         35.76576        10.70711        -0.47639
C         35.77909        12.11475        -0.59860
C         37.00392        10.01031        -0.35982
C         36.98739        12.84427        -0.47933
C         35.74390        15.02090        -0.59023
C         35.66054        16.43062        -0.34981
C         36.97436        14.29699        -0.46671
C         36.87604        17.08957         0.26141
C         35.72886        19.29915        -0.10568
C         36.87290        18.60111         0.17163
C         38.15829         2.05570        -0.17764
C         38.18828         3.48721        -0.31811
C         39.39459         1.36073         0.07384
C         39.44310         4.19521        -0.15243
C         38.29517         6.35401        -0.58414
C         38.25908         7.78847        -0.18320
C         39.50960         5.60932        -0.21396
C         39.54475         8.50575        -0.21416
C         38.21304        10.70801        -0.31411
C         38.21617        12.13766        -0.30797
C         39.55277        10.00237        -0.46201
C         39.45512        12.86354        -0.14783
C         38.19904        14.98884        -0.31495
C         38.16160        16.47178        -0.25935
C         39.44222        14.29948        -0.18154
C         39.42623        17.25121        -0.08783
C         38.08569        19.25826         0.55415
C         39.31636        18.58445         0.57660
C         40.57212         2.03560         0.23846
C         40.62792         3.47098         0.15768
C         41.82352         4.18789         0.39500
C         40.70308         6.32761         0.03636
C         40.71346         7.80169        -0.07228
C         41.86180         5.57640         0.34339
C         41.95742         8.57697        -0.00830
C         40.64552        10.67358         0.36757
C         40.68139        12.16837         0.07615
C         41.94750         9.91418         0.17000
C         41.86129        12.89629         0.16621
C         40.67691        15.01874        -0.05399
C         40.78127        16.54428        -0.16530
C         41.85874        14.29830         0.06042
C         41.77146        17.11866         0.82108
C         40.43279        19.11860         1.22959
C         41.61790        18.34784         1.38994
O          3.98902        12.53457         1.82445
O         32.52045        17.09031        -2.08949
O         29.39796        18.24725        -1.10089
O         38.73870        17.19204        -1.39339
O          6.62239        10.27781         2.10422
O         28.50623         3.92158        -1.99617
O         26.69905         6.09034         1.39884
O         25.01113         8.98659         1.98314
O          3.41058         8.47864        -1.74714
O          3.27650         2.58329         1.00216
O         37.80630         6.06728        -1.93320
O         29.27002        14.70493         1.46759
O          3.37952         5.94196        -1.81328
O         26.00478        15.78707         1.89939
O          5.04120         5.99282         1.59590
O         18.46226         6.79497         2.37616
O         34.60791        13.51492        -2.22127
O         31.56648         8.16457         1.07802
O         13.57819        15.38160        -2.13749
O          9.56358        12.54283         1.74636
O         31.45038         5.68816         0.84739
O         37.50233         8.03742         1.06066
O         33.08158         7.17069        -2.03942
O         14.00505         3.89367        -1.29574
O         16.51944        10.81315         1.98008
O         23.32720        10.87761         2.68028
H         23.70236        10.05034         3.06505
O         28.06387         7.97022        -2.05825
H         28.24175         8.90576        -2.30054
O         24.21994        17.70534         1.84216
H         24.55250        17.03808         2.48694
O          2.63186        17.05558        -1.98066
H          2.56431        16.09390        -2.16091
O         24.95365        17.88041        -1.72055
H         24.93202        18.61484        -2.36820
O         18.20074        10.08813        -1.12341
H         18.92795        10.47491        -1.65574
O         36.84524        16.75765         1.68464
H         36.04263        17.16201         2.07554
O         25.34532         7.88623        -1.52724
H         26.17232         7.75762        -2.05778
O         19.57014         0.02127        -0.24987
H         19.61172         0.17133        -1.21971
O          7.44768         1.01385        -1.81062
H          7.56343         1.85713        -2.29472
O         41.33585        16.81488        -1.48396
H         40.56665        16.88956        -2.09555
O         13.63877        10.26364        -1.71921
H         13.75052         9.29256        -1.81163
O         21.01224         7.55201         2.75589
H         20.14465         7.18285         3.05804
O         34.43318        19.03820        -2.06679
H         33.69626        18.51525        -2.46963
O         39.93722        10.19214        -1.85463
H         39.27843         9.74369        -2.42482
O         11.69760        16.63560         1.28404
H         11.07053        16.23849         1.92499
O         10.85254         1.91688         2.18537
H         10.00356         2.33329         2.44771
O         20.49383         2.07258        -1.74405
H         21.23763         2.49817        -2.22054
O         22.36043        16.69867        -2.00356
H         21.57450        17.07401        -2.45481
O         30.84811         3.26583        -2.63854
H         29.91763         3.20666        -2.96484
O         16.70340         8.47299         2.79415
H         16.29252         9.34653         3.00738
O         10.56636        11.98933        -1.74067
H         11.31762        11.59820        -2.23760
O          5.01824        18.83862         1.91985
H          5.81734        18.35878         2.22623
O         11.63659        17.00960        -2.35236
H         12.09796        16.26966        -2.81591
O         40.27009        10.54145         1.76269
H         40.97607        10.94166         2.31080
H          0.25683         1.60584        -1.39299
H          0.21244         4.03711        -1.11545
H          2.35730         0.31772        -1.21713
H          0.16249         6.05533        -0.85977
H          0.21539         8.44723        -0.77046
H          0.30490        10.41730        -0.85233
H          0.29253        12.84253        -0.61439
H          0.25164        14.72782         0.25168
H          0.31785        17.14993        -0.10867
H          1.65176        19.28463        -0.55390
H          4.90068         0.34329        -0.83924
H          3.65958        20.47823         0.14991
H          7.23308         0.32916         0.11520
H          6.23289        20.42334        -0.19465
H          9.71715         0.28265        -0.01194
H          8.65888        20.35877        -0.45267
H         12.25851         0.22001         0.48879
H         11.12762        20.33465        -0.37308
H         14.72735         0.24455         0.09343
H         13.59388        20.27366        -0.54091
H         17.19386         0.27537         0.11896
H         16.02856        20.24499        -0.58677
H         19.91399         1.15044         1.44482
H         18.47691        20.23026        -0.53748
H         22.14666         0.29048        -0.28840
H         20.90446        20.24200        -0.38175
H         24.57233         0.26586        -0.13455
H         23.35519        20.26632        -0.38103
H         27.04129         0.22950        -0.07131
H         25.73776        20.34940         0.16118
H         29.56007         0.24797        -0.22788
H         28.17701        20.12789         1.42012
H         32.00935         0.27203        -0.28354
H         31.06392        20.11729         1.15130
H         34.47423         0.25626        -0.38551
H         33.28626        20.20436         0.46965
H         36.94048         0.26738        -0.18828
H         35.76441        20.40026        -0.10840
H         39.37045         0.26402         0.15476
H         38.04905        20.31763         0.85242
H         41.49989         1.48489         0.45261
H         42.74030         3.62942         0.63430
H         42.81232         6.09043         0.54243
H         42.91820         8.04729        -0.08824
H         42.90709        10.44425         0.26446
H         42.82318        12.38823         0.31971
H         42.82295        14.82276         0.09180
H         42.71213        16.57484         0.98625
H         40.35445        20.09991         1.71852
H         42.42072        18.75337         2.02316
