         244
 CSIRO Nanostructure Databank - Neutral Graphene Oxide Data Set
C          1.24796         2.04794         0.85949
C          1.22159         3.44772         0.77270
C          2.43330         1.35333         0.69097
C          2.38541         4.18777         0.48216
C          1.23600         6.38831         0.69950
C          1.23000         7.77602         0.59847
C          2.36731         5.62377         0.38397
C          2.41735         8.51161         0.28909
C          1.18868        10.69693         0.38746
C          1.15433        12.04235         0.51643
C          2.42944         9.94603         0.27905
C          2.41485        12.81074         0.58426
C          1.17943        15.10336         0.59032
C          1.20315        16.44350         0.61526
C          2.43374        14.30778         0.64150
C          2.49359        17.19123         0.83614
C          2.48301        18.60484         0.29092
C          3.64705         2.05346         0.42960
C          3.62450         3.48188         0.29559
C          4.86407         1.34616         0.33556
C          4.84281         4.18881         0.05146
C          3.53608         6.32584        -0.26015
C          3.61955         7.80417         0.03367
C          4.84743         5.61182        -0.09388
C          4.84570         8.49523        -0.13377
C          3.64985        10.62895         0.11655
C          3.62863        12.13618        -0.05157
C          4.85969         9.92160        -0.07461
C          4.94868        12.80899         0.36054
C          3.68089        15.03052         0.25029
C          3.67631        16.40251         0.30168
C          4.91591        14.29539         0.00190
C          4.84378        17.17664        -0.13319
C          3.62341        19.28007         0.08943
C          4.94564        18.60273         0.38785
C          6.08572         2.02664         0.16077
C          6.07052         3.45315         0.01346
C          7.32778         1.33334         0.10869
C          7.30371         4.13721        -0.14493
C          6.03655         6.34093        -0.29432
C          6.07100         7.76017        -0.35640
C          7.27317         5.56873        -0.52288
C          7.31924         8.47783        -0.56783
C          6.10606        10.64478        -0.32227
C          6.11875        12.04633        -0.21282
C          7.30098         9.91028        -0.59829
C          7.32033        12.81596        -0.67108
C          6.08192        14.96355        -0.27712
C          6.10805        16.41643        -0.50023
C          7.41005        14.25405        -0.13742
C          7.39037        17.15286        -0.42327
C          6.17760        19.29781        -0.11065
C          7.37436        18.59696        -0.30816
C          8.53431         2.02939         0.03295
C          8.51395         3.45296        -0.06271
C          9.80993         1.34164        -0.04021
C          9.77579         4.22330         0.20277
C          8.58309         6.32423        -0.70312
C          8.54673         7.78989        -0.68570
C          9.82877         5.61776        -0.37644
C          9.86354         8.47477        -0.94829
C          8.57844        10.65118        -0.96750
C          8.58735        12.03314        -0.31808
C          9.85173         9.92981        -0.60671
C          9.87227        12.79091        -0.53572
C          8.49440        14.98744        -0.96665
C          8.58464        16.45065        -0.54905
C          9.91057        14.23955        -0.97177
C          9.82687        17.13566        -0.52158
C          8.61883        19.28044        -0.40554
C          9.83862        18.57466        -0.46692
C         11.00561         2.00408        -0.12128
C         11.05595         3.45212        -0.02413
C         12.27515         1.22283        -0.38290
C         12.23116         4.14681         0.09893
C         10.99646         6.35516        -0.16531
C         11.04909         7.75472        -0.36113
C         12.20939         5.62084         0.26929
C         12.28247         8.47732        -0.22575
C         11.03473        10.62284        -0.37583
C         11.04224        12.09411        -0.35547
C         12.28420         9.92147        -0.29557
C         12.30161        12.79019        -0.17019
C         11.05476        15.00420        -0.38685
C         11.06386        16.40415        -0.45345
C         12.28656        14.28195         0.10245
C         12.30592        17.12276        -0.40765
C         11.08362        19.25351        -0.46399
C         12.31140        18.55395        -0.46021
C         13.54785         1.95278         0.02199
C         13.52945         3.44660         0.24622
C         14.83135         1.33583        -0.33966
C         14.79150         4.20889         0.09392
C         13.53082         6.37017         0.26350
C         13.50108         7.78983        -0.08186
C         14.79203         5.60782         0.09941
C         14.78057         8.49555        -0.42933
C         13.52212        10.63826        -0.11511
C         13.47338        12.09667         0.01070
C         14.73392         9.95705        -0.06712
C         14.74576        12.85348         0.11738
C         13.56097        14.97448        -0.34359
C         13.53835        16.40704        -0.46430
C         14.76751        14.26599        -0.35370
C         14.74769        17.11485        -0.60107
C         13.55144        19.24310        -0.48648
C         14.77191        18.54400        -0.54930
C         16.01265         2.04344        -0.29251
C         16.01477         3.49324        -0.09343
C         17.27241         1.35228        -0.43340
C         17.22352         4.20407        -0.13426
C         16.02007         6.33917         0.03532
C         16.03038         7.76236         0.00484
C         17.25009         5.61125         0.01026
C         17.25814         8.46603         0.09091
C         15.97947        10.60075         0.50222
C         16.03016        12.11570         0.24964
C         17.26965         9.89083         0.15972
C         17.24017        12.68874        -0.48236
C         16.01996        14.90815        -0.56598
C         15.99307        16.36616        -0.81209
C         17.27007        14.21524        -0.46740
C         17.29360        17.15053        -0.73560
C         16.01903        19.23624        -0.38911
C         17.23613        18.56663        -0.31735
C         18.48095         2.01183        -0.40566
C         18.51770         3.51950        -0.50583
C         19.73533         1.33055        -0.42014
C         19.68383         4.10826         0.27845
C         18.50619         6.32401         0.06914
C         18.50372         7.74298         0.12048
C         19.73349         5.61205         0.13170
C         19.74462         8.45077         0.21797
C         18.48685        10.60662         0.20489
C         18.50286        12.00695        -0.01367
C         19.75056         9.87646         0.27923
C         19.77638        12.68048        -0.11409
C         18.48728        14.90321        -0.46131
C         18.55328        16.37557        -0.53094
C         19.79189        14.22794        -0.33535
C         19.74488        17.09151         0.07787
C         18.38661        19.17963         0.26193
C         19.56276        18.48548         0.54539
C         20.93761         2.01806        -0.30441
C         20.97902         3.40807        -0.05682
C         22.17841         4.13718         0.02685
C         20.96821         6.28214         0.21032
C         20.98019         7.73225         0.26013
C         22.17790         5.51681         0.19914
C         22.18180         8.46015         0.37254
C         20.97220        10.56822         0.41875
C         20.92117        12.06392         0.66736
C         22.17495         9.84673         0.46730
C         22.20360        12.82792         0.47550
C         20.94980        14.92999         0.22914
C         20.86026        16.28344         0.62131
C         22.17738        14.17976         0.38391
C         21.82746        16.93849         1.40752
C         20.60305        19.05616         1.32465
C         21.70155        18.30056         1.72559
O          7.83711         5.75759        -1.85708
O          5.20249        16.95867        -1.52101
O         19.63065        16.90283        -1.37812
O         16.69644        16.83774        -2.02675
O         12.79961         6.06646         1.52895
O         13.52492         2.49665         1.38183
O          2.60805        13.49736         1.88332
O         20.10092        13.26227        -1.40216
O          8.03037        15.01470        -2.28781
O         15.51933        12.83205         1.41198
O         19.41734         3.83632         1.68849
H         20.15755         4.20939         2.21122
O          2.65889        17.30814         2.29341
H          2.62397        16.40141         2.66807
O         10.32538        14.21248        -2.36742
H          9.49997        14.53344        -2.86245
O          3.25016         6.24705        -1.72539
H          2.38499         6.68810        -1.86734
O         14.85137         8.46788        -1.92326
H         15.59373         9.05309        -2.18942
O         15.84450        10.38728         1.94326
H         15.50671        11.23778         2.31775
O          9.71166         4.44964         1.66395
H         10.58162         4.80691         1.95058
O          7.74183        14.25382         1.27139
H          6.95413        13.90135         1.75331
O          5.15081        12.74190         1.80262
H          4.30080        13.03989         2.22127
O         10.03389         8.43736        -2.45599
H         10.97401         8.65536        -2.64186
O         20.53412        12.22388         2.07319
H         21.19118        11.74764         2.62276
O         17.03964        12.29760        -1.87922
H         17.81315        12.63120        -2.38525
O          3.50972        12.38419        -1.48025
H          2.83507        11.77548        -1.84660
O          7.07798        12.91634        -2.08316
H          7.59889        12.22624        -2.56555
O         12.34854         0.90832        -1.78881
H         12.11628         1.70887        -2.30229
O          5.10129        18.52951         1.83957
H          4.24089        18.21504         2.21949
O          8.59327        10.77199        -2.42372
H          8.94430         9.90940        -2.77485
O         18.76278         3.83356        -1.90814
H         18.04803         3.42436        -2.43887
O          8.54183        11.73709         1.10393
H          8.58600        12.59869         1.58342
O         12.25217        14.41766         1.57004
H         13.07651        14.01509         1.92054
H          0.31646         1.50358         1.06897
H          0.26156         3.96217         0.91349
H          2.45547         0.25748         0.77473
H          0.32344         5.89511         1.06312
H          0.30765         8.30930         0.86014
H          0.23734        10.14852         0.36983
H          0.19360        12.55998         0.64690
H          0.22026        14.57079         0.50978
H          0.26605        17.01889         0.56592
H          1.50690        19.07837         0.10325
H          4.86157         0.25087         0.43800
H          3.60880        20.31791        -0.27731
H          7.33131         0.23484         0.16787
H          6.20811        20.39751        -0.06612
H          9.79902         0.24190        -0.08557
H          8.63452        20.37839        -0.34937
H         12.23256         0.24203         0.15667
H         11.09224        20.35391        -0.46831
H         14.84183         0.26772        -0.60290
H         13.55665        20.34260        -0.46326
H         17.25341         0.25144        -0.45945
H         15.98490        20.30970        -0.14974
H         19.74197         0.23555        -0.52928
H         18.29576        20.22194         0.60391
H         21.88645         1.46686        -0.39334
H         23.13735         3.60923        -0.08793
H         23.14599         6.03217         0.25160
H         23.14734         7.93889         0.40509
H         23.13369        10.37138         0.57748
H         23.17060        12.31364         0.56704
H         23.12408        14.74110         0.40668
H         22.68833        16.37484         1.79302
H         20.51728        20.10682         1.63707
H         22.48016        18.77439         2.33998
