         480
 CSIRO Nanostructure Databank - Neutral Graphene Oxide Data Set
C         37.66103        50.24431        -1.77951
C         36.53015        50.99869        -1.80309
C         37.76624        53.09253        -1.95454
C         36.57957        52.43466        -1.88285
C         40.19162        48.65269        -1.54539
C         40.22640        50.08128        -1.70463
C         38.98295        50.83365        -2.03456
C         40.31763        53.06323        -1.84725
C         39.02495        52.36148        -2.15310
C         40.55800        54.43550        -2.35076
C         42.69845        48.51656        -1.53833
C         41.32383        47.91699        -1.39382
C         42.66644        50.02600        -1.34743
C         41.46143        50.74076        -1.55822
C         42.87515        52.85210        -1.78963
C         41.51646        52.23348        -1.52085
C         42.91922        54.35646        -1.66735
C         41.76553        55.04148        -2.22307
C         45.05762        45.68988        -0.63396
C         43.89256        46.33305        -0.87163
C         45.09486        48.49181        -0.71089
C         43.73632        47.81275        -0.62581
C         45.09030        49.99262        -0.66216
C         43.83893        50.74198        -0.93609
C         44.98051        52.86578        -0.29447
C         43.92386        52.12532        -1.00450
C         45.13195        54.33066        -0.50085
C         44.05433        55.01757        -1.22619
C         45.24394        57.13556        -0.90915
C         44.23698        56.44056        -1.46667
C         47.55078        44.22363        -0.02123
C         47.50749        45.65666        -0.03030
C         46.29688        46.36400        -0.26102
C         47.49940        48.51473        -0.05323
C         46.30995        47.78191        -0.25513
C         47.43729        49.95926         0.05044
C         46.25664        50.66112        -0.07722
C         47.35862        52.83989         0.74172
C         46.13769        52.09161         0.28458
C         47.27179        54.36082         0.89596
C         46.18918        55.01693         0.04112
C         47.49027        57.19781         0.25167
C         46.12573        56.53193         0.14985
C         47.60396        58.57000         0.06389
C         49.97203        44.20817         0.35576
C         48.71882        43.53918         0.17412
C         49.97385        45.66191         0.30214
C         48.73502        46.37362         0.15477
C         49.97180        48.49426         0.31654
C         48.73911        47.80312         0.14775
C         49.97727        49.97356         0.27066
C         48.69749        50.72299         0.18700
C         49.94259        52.89938         0.71173
C         48.66995        52.13038         0.70615
C         49.88653        54.33442         0.86586
C         48.64027        55.05045         0.77146
C         49.82022        57.22255         1.10315
C         48.63431        56.45467         0.68517
C         49.92966        58.65387         0.80044
C         48.81312        59.27393         0.25809
C         52.24124        41.35835         1.22491
C         51.12702        42.06571         0.90749
C         52.42000        44.17662         0.77396
C         51.15320        43.48800         0.64122
C         52.51230        45.64047         0.37847
C         51.18187        46.37371         0.41700
C         52.46851        48.51411         0.46068
C         51.18849        47.79418         0.44760
C         52.47537        50.00384         0.59049
C         51.18514        50.73055         0.70428
C         52.40565        52.92142         0.72151
C         51.15239        52.22057         0.63648
C         52.37548        54.33920         0.92025
C         51.12730        55.01851         1.00899
C         52.40788        57.19599         1.31123
C         51.14038        56.44719         1.32815
C         52.38531        58.64374         1.34458
C         51.17299        59.35169         1.06470
C         52.41137        61.45860         1.11924
C         51.22218        60.76269         0.99548
C         54.84031        39.83071         0.52515
C         54.81813        41.27279         0.85704
C         53.55035        42.01567         1.26345
C         54.86480        44.15146         1.37484
C         53.56055        43.48386         1.10549
C         54.87305        45.67004         1.40616
C         53.54842        46.43373         1.20463
C         54.93648        48.55730         0.41374
C         53.65214        47.83888         0.60316
C         54.98203        50.06288         0.29368
C         53.66378        50.82737         0.12370
C         54.86269        52.92328         0.86438
C         53.64545        52.23663         0.67212
C         54.84937        54.34342         1.05233
C         53.60773        55.04920         1.07612
C         54.85673        57.14816         1.64154
C         53.59768        56.47135         1.27228
C         54.83043        58.65342         1.85336
C         53.59517        59.37904         1.50003
C         54.90236        61.52186         1.39323
C         53.63577        60.78621         1.34581
C         54.94637        62.92997         1.19864
C         57.28951        39.98274         0.29358
C         56.02905        39.23215         0.30866
C         57.25224        41.35372         0.21391
C         55.94102        42.11054         0.24531
C         57.36220        43.79273         1.44119
C         56.09313        43.37857         1.06132
C         57.43668        45.88259         1.66469
C         56.16827        46.37620         1.14145
C         57.44133        48.57362         0.97334
C         56.21145        47.82059         0.67409
C         57.32902        50.02034         1.25213
C         56.16106        50.78139         0.82729
C         57.32242        52.92371         1.14518
C         56.11594        52.19056         0.96626
C         57.30719        54.32803         1.02825
C         56.09508        55.05593         1.08332
C         57.32008        57.20083         1.26067
C         56.13484        56.48443         1.30567
C         57.41610        58.62050         1.64117
C         56.13201        59.40037         1.87577
C         57.36867        61.53557         1.52602
C         56.13041        60.84899         1.58353
C         57.38845        62.96631         1.37039
C         56.13571        63.62590         1.20489
C         59.84705        37.22777         0.77248
C         58.62656        37.89270         0.62278
C         59.79296        40.01209         0.27496
C         58.56137        39.26814         0.37584
C         59.74767        41.38998         0.07515
C         58.48269        42.17557        -0.07824
C         59.73294        44.27926         0.68861
C         58.57897        43.44957         0.76787
C         59.83335        45.67580         1.03895
C         58.64905        46.45687         1.27361
C         59.90154        48.59113         1.61397
C         58.62977        47.90612         1.15634
C         59.93063        50.07476         1.31008
C         58.67303        50.77280         1.49899
C         59.91804        52.96818         1.10407
C         58.62031        52.25759         1.38859
C         59.85252        54.38235         0.69924
C         58.54883        55.03958         0.69056
C         59.84252        57.23899         0.84997
C         58.53849        56.57117         0.73112
C         59.84149        58.67158         1.07168
C         58.65049        59.36421         1.30598
C         59.81305        61.51395         1.35450
C         58.61900        60.80471         1.44057
C         59.84681        62.94422         1.69985
C         58.61226        63.69267         1.46536
C         59.88373        65.80419         1.33302
C         58.71499        65.11016         1.26017
C         62.42132        35.84197         1.09028
C         62.34834        37.22079         0.78233
C         61.07737        37.90360         0.66155
C         62.28629        39.99933         0.26283
C         61.06439        39.31091         0.39055
C         62.27627        41.43132        -0.07341
C         60.96610        42.16245        -0.16011
C         62.18711        44.42258        -0.12796
C         60.89939        43.66704        -0.02211
C         62.24432        45.79758         0.39132
C         61.07639        46.44699         0.85777
C         62.37487        48.60470         1.12276
C         61.11057        47.84438         1.11846
C         62.38763        50.07462         0.97175
C         61.13961        50.77525         1.04695
C         62.34611        52.88877         0.57125
C         61.16014        52.20109         0.87816
C         62.25443        54.33163         0.08735
C         61.01645        55.09546         0.50983
C         62.34166        57.20827         0.91915
C         61.01930        56.53276         0.62479
C         62.29813        58.71320         0.71488
C         61.09220        59.37641         0.90583
C         62.36610        61.59873         1.01294
C         61.03713        60.84459         0.92347
C         62.41485        63.01108         1.42608
C         61.19605        63.70340         1.81040
C         62.43150        65.88987         1.30947
C         61.18072        65.23541         1.87317
C         62.46798        67.31219         1.22842
C         64.85026        35.81259         0.83277
C         63.63022        35.16323         1.11449
C         64.82788        37.23753         0.61347
C         63.56945        37.93561         0.58246
C         64.78304        40.06413         0.14407
C         63.54573        39.33876         0.34830
C         64.80206        41.45890        -0.03871
C         63.53398        42.20356         0.11971
C         64.74236        44.33194        -0.65180
C         63.49932        43.67721        -0.05877
C         64.74351        45.83497        -0.36954
C         63.49057        46.52962         0.13121
C         64.85079        48.66637         0.37458
C         63.64551        47.88472         0.72119
C         64.84452        50.04727         0.53549
C         63.59740        50.76839         0.72501
C         64.81328        52.90363         0.16121
C         63.58489        52.19630         0.50990
C         64.75816        54.35551        -0.14107
C         63.53283        55.12418         0.21359
C         64.80004        57.26019         0.16214
C         63.54361        56.47837         0.34278
C         64.80911        58.73901         0.42371
C         63.54150        59.44570         0.74509
C         64.85220        61.50248         1.40985
C         63.58156        60.79613         1.01191
C         64.81259        62.96392         1.01049
C         63.63881        63.69362         1.18431
C         64.86136        65.84063         0.97247
C         63.65060        65.16881         1.13648
C         64.96159        67.33643         1.11687
C         63.63039        68.01253         1.05898
C         67.25349        32.96027         0.29858
C         66.10293        33.64698         0.62360
C         67.26703        35.76184         0.28089
C         66.07071        35.06662         0.62219
C         67.32654        37.23114         0.65737
C         66.02768        37.94939         0.41464
C         67.26041        40.05426         0.01268
C         66.03221        39.34791         0.17574
C         67.26774        41.47759        -0.09142
C         66.01999        42.19255        -0.14574
C         67.23999        44.32192        -0.28092
C         66.02404        43.61161        -0.27122
C         67.26006        45.76630        -0.30136
C         66.03330        46.53011        -0.17707
C         67.32463        48.61302         0.05004
C         66.03391        47.90076         0.06829
C         67.38839        50.08675         0.26867
C         66.12716        50.84977         0.68596
C         67.30068        52.96524        -0.01837
C         66.04588        52.25714         0.13513
C         67.33140        54.37207         0.02293
C         66.08990        55.12713        -0.11231
C         67.30257        57.23219         0.43499
C         66.09256        56.55350         0.19865
C         67.32252        58.66490         0.63763
C         66.10091        59.41909         0.71155
C         67.38615        61.53480         1.16570
C         66.10264        60.77381         0.98844
C         67.32275        62.92191         0.58881
C         66.01477        63.66771         0.45401
C         67.32093        65.77369         0.31609
C         66.16581        65.08227         1.02138
C         67.39390        67.28537         0.25581
C         66.02063        67.92043         0.19838
C         66.86552        69.63524        -1.33257
C         65.81042        69.02234        -0.57081
C         69.79408        31.56871        -0.25157
C         69.58360        32.92254        -0.58408
C         68.41455        33.64114        -0.17001
C         69.52818        35.86989        -0.79243
C         68.38547        35.07137        -0.18882
C         69.78735        37.12685         0.05254
C         68.53235        37.95945         0.12246
C         69.72354        40.05540        -0.57537
C         68.50322        39.30249        -0.09385
C         69.77593        41.44325         0.08657
C         68.49074        42.20815        -0.14157
C         69.74805        44.33559        -0.36843
C         68.49485        43.60826        -0.24121
C         69.73164        45.75412        -0.51912
C         68.48671        46.43694        -0.44333
C         69.72347        48.66391        -0.81054
C         68.45209        47.90269        -0.61960
C         69.71699        50.13653        -0.61264
C         68.57799        50.82651        -0.24719
C         69.75822        53.00379        -0.25830
C         68.55142        52.26863        -0.17072
C         69.79519        54.38161         0.06734
C         68.55118        55.09572         0.20145
C         69.81242        57.17498         0.83329
C         68.53393        56.48977         0.42559
C         69.81512        58.65946         0.55692
C         68.57899        59.36851         0.66321
C         69.79164        61.49369         0.39707
C         68.60262        60.78055         0.70740
C         69.74923        62.90839         0.16439
C         68.46909        63.58955         0.24256
C         69.57636        65.65599        -0.64002
C         68.41222        65.02680        -0.04468
C         69.41869        66.99049        -1.17995
C         68.32748        67.75231        -0.84358
C         69.21707        69.67752        -2.17970
C         68.10766        69.05169        -1.44792
C         69.17254        71.04179        -2.53066
C         71.98658        31.56945        -1.33284
C         70.95504        30.89859        -0.60561
C         71.84859        32.86877        -1.70964
C         70.58053        33.63916        -1.47112
C         72.00445        35.66812        -0.91628
C         70.79106        35.05936        -0.99239
C         72.11621        37.09521        -0.73118
C         71.02604        37.86285        -0.40234
C         72.20018        40.04133        -0.38836
C         71.03480        39.30741        -0.38321
C         72.19049        41.46646        -0.45627
C         71.02720        42.19834        -0.31432
C         72.18724        44.38112        -0.59822
C         70.98761        43.63589        -0.41417
C         72.18095        45.74896        -0.71645
C         70.96613        46.49772        -0.68068
C         72.19713        48.67999        -0.84060
C         70.98858        47.91332        -0.77479
C         72.20053        50.03912        -0.97639
C         70.96170        50.83547        -0.97888
C         72.26245        53.05701        -0.51510
C         70.99322        52.35030        -0.73861
C         72.27132        54.34663        -0.10848
C         71.04829        55.08912         0.12955
C         72.27134        57.23529         0.34103
C         71.06778        56.46833         0.37843
C         72.25913        58.60645         0.37243
C         71.02560        59.35191         0.40507
C         72.17711        61.51806        -0.13296
C         71.01763        60.78210         0.22132
C         72.11756        62.87544        -0.38520
C         70.89828        63.59943        -0.27901
C         71.93716        65.72136        -1.23680
C         70.79228        64.98533        -0.71709
C         71.78885        66.89384        -1.89039
C         70.41243        67.43087        -2.22707
C         71.41504        69.53866        -3.20695
C         70.37057        68.92298        -2.50144
C         71.35351        70.88890        -3.55416
C         70.22960        71.64332        -3.20822
O         54.87704        44.91546         2.64578
O         63.62002        43.11667         1.29104
O         40.75573        52.85749        -0.44817
O         39.07796        51.52510        -3.34554
O         59.39574        52.85469         2.49215
O         54.72815        57.73943         2.98321
O         63.86692        46.54259        -1.31394
O         65.36978        54.78547        -1.37990
O         55.15837        49.22171        -0.90316
O         50.27716        56.84134         2.43776
O         57.83056        50.31539         2.61469
O         60.53878        63.14333         3.01072
O         58.35152        55.85691        -0.52634
O         67.76605        49.15074         1.35878
O         61.61828        61.48414        -0.27089
O         61.29858        44.29927        -1.29636
O         70.85012        51.78560        -2.09275
O         44.99421        52.43125         1.13121
O         63.31538        48.02454         2.12560
O         49.52036        50.55010        -1.01994
O         56.36077        46.72919        -0.28407
O         51.89655        50.29982         1.91435
O         56.96335        58.98818         2.99798
O         61.66935        41.72697        -1.38340
O         45.40377        49.24802        -1.91685
O         57.46527        44.75656         2.47434
O         64.73804        58.23019        -0.96545
O         47.91060        52.22654         1.96578
O         68.81996        48.32495        -1.96671
O         54.52728        41.53267         2.25786
O         59.89433        48.47785         3.07949
H         59.17793        49.07707         3.40030
O         66.23962        51.06957         2.12770
H         66.62453        50.24247         2.50253
O         68.02060        67.73134         1.51231
H         67.30059        67.82591         2.17895
O         66.53010        64.95625         2.42896
H         66.47550        65.86489         2.81064
O         62.09441        54.16885        -1.36666
H         62.19537        55.04897        -1.78833
O         67.55569        61.74855         2.64457
H         67.92467        62.65098         2.77020
O         70.00717        66.77833        -3.48025
H         70.62708        67.07456        -4.17943
O         43.24890        47.98292         0.73204
H         43.80730        47.44727         1.33324
O         70.07409        36.65357         1.41146
H         70.51828        37.38461         1.89173
O         69.84141        57.06296         2.31846
H         70.63535        57.55184         2.62487
O         43.11472        48.23833        -2.90759
H         42.60855        48.82760        -3.50511
O         45.47175        56.80734         1.42865
H         45.85791        56.17968         2.08742
O         69.91920        33.77069        -2.79683
H         69.70982        32.86291        -3.10517
O         46.86914        54.60767         2.27590
H         47.26588        53.88650         2.81902
O         62.54327        57.05082         2.37307
H         61.79104        57.48270         2.83204
O         58.35088        42.59108        -1.48682
H         59.22347        42.92734        -1.79173
O         67.48677        37.20769         2.12372
H         68.37594        36.80518         2.28303
O         69.09165        36.31582        -2.09905
H         69.15727        35.53892        -2.70365
O         52.98374        45.66252        -0.99472
H         52.33503        45.18687        -1.55409
O         61.19088        65.61974         3.28518
H         60.74179        64.88333         3.76683
O         53.45233        51.02374        -1.30245
H         53.92485        50.28968        -1.76491
O         55.55039        42.43472        -1.11276
H         56.37601        42.67179        -1.60050
O         69.86761        41.20263         1.52338
H         69.88766        42.07270         1.97399
O         52.99240        46.64203         2.51975
H         53.35617        45.94016         3.11028
O         64.63865        44.17085        -2.08760
H         64.06696        44.90224        -2.41898
O         64.85803        61.49467         2.88273
H         65.79953        61.65589         3.15401
O         65.75050        63.84493        -0.97293
H         65.66268        62.95892        -1.38276
O         43.13086        52.57126        -3.20966
H         44.03918        52.87042        -3.42442
O         69.56062        40.23265        -2.00355
H         70.37272        40.65902        -2.34932
O         65.47148        67.56320         2.52301
H         64.70634        67.41660         3.12280
H         37.58538        49.17312        -1.54615
H         35.55387        50.52034        -1.64037
H         37.80776        54.18508        -1.83394
H         35.64302        52.99789        -1.76581
H         39.22041        48.13809        -1.53908
H         39.71450        54.98036        -2.79943
H         41.24302        46.82491        -1.29311
H         41.85875        56.09493        -2.52539
H         45.08503        44.60076        -0.78012
H         43.01108        45.74953        -1.17586
H         45.35378        58.20002        -1.15839
H         43.56950        56.94319        -2.18106
H         46.62438        43.65118        -0.15967
H         46.73240        59.15268        -0.26159
H         48.68282        42.44208         0.17523
H         48.83230        60.34328         0.00825
H         52.17603        40.28557         1.45263
H         50.16531        41.53638         0.88612
H         52.38416        62.55285         1.04257
H         50.29788        61.33249         0.83240
H         53.91035        39.24486         0.55507
H         54.01613        63.49516         1.05749
H         56.05831        38.15173         0.11151
H         56.10683        64.71680         1.08285
H         59.82465        36.14871         0.97376
H         57.70454        37.30427         0.72069
H         59.84270        66.89084         1.17093
H         57.80640        65.66330         0.97997
H         61.50354        35.27596         1.29802
H         61.52824        67.87493         1.32059
H         63.61796        34.08733         1.33473
H         63.60091        69.11150         1.05089
H         67.24175        31.86220         0.32957
H         65.20871        33.07378         0.90323
H         66.64389        70.58823        -1.83209
H         64.82227        69.50521        -0.59446
H         69.04409        31.03767         0.35209
H         68.29618        71.64834        -2.26318
H         72.90772        31.01987        -1.57558
H         71.09909        29.85228        -0.30543
H         72.64008        33.35545        -2.29776
H         72.92668        35.10512        -1.12375
H         73.07832        37.56565        -0.98214
H         73.17533        39.53373        -0.35551
H         73.15428        41.96714        -0.62209
H         73.15192        43.85880        -0.63734
H         73.13934        46.26616        -0.85222
H         73.16583        48.16183        -0.83071
H         73.15694        50.55967        -1.12156
H         73.20852        52.54342        -0.73420
H         73.23812        54.84900         0.02830
H         73.23897        56.72814         0.22488
H         73.21454        59.14455         0.31891
H         73.13922        61.00293        -0.25694
H         73.03345        63.39115        -0.70374
H         72.94881        65.32036        -1.07651
H         72.68044        67.41379        -2.27148
H         72.30178        68.95647        -3.49782
H         72.18685        71.35376        -4.09883
H         70.17742        72.70864        -3.47228
