         276
 CSIRO Nanostructure Databank - Neutral Graphene Oxide Data Set
C        -10.08567         0.91469        -3.03098
C         -9.38338         1.65789        -1.91110
C         -8.15260         0.84161        -1.52337
C         -6.82404         1.47254        -1.25872
C         -6.15564         0.87998        -0.01663
C         -4.83424         1.49017         0.47823
C         -3.66620         0.69626         1.01651
C         -2.42592         1.42082         1.66422
C         -1.06025         0.65261         1.57320
C          0.02931         1.37788         2.43646
C          1.36769         0.62450         2.34021
C          2.64308         1.34233         2.04123
C          3.68585         0.51790         1.28191
C          4.99336         1.26152         0.99882
C          5.96475         0.47160         0.17962
C          6.71749         1.04580        -0.80911
C          7.68279         0.26862        -1.58028
C          8.46025         0.91714        -2.64013
C          9.47125         0.14557        -3.35013
C         -9.10421         3.13307        -2.06397
C         -7.96534         3.73909        -1.62123
C         -6.64129         2.97725        -1.59650
C         -5.51331         3.66516        -0.78985
C         -4.58660         2.93778         0.14426
C         -3.64508         3.66453         1.11128
C         -2.31869         2.86689         1.20890
C         -1.06785         3.59317         1.56884
C          0.16128         2.85882         2.00967
C          1.33761         3.55000         1.95674
C          2.65654         2.85800         1.98560
C          3.89164         3.58732         1.51300
C          5.06323         2.76284         0.98974
C          6.02785         3.39944         0.00374
C          6.54359         2.49656        -1.09857
C          7.32743         3.08814        -2.22248
C          8.28158         2.23281        -2.94901
C         -7.92475         5.18555        -1.46126
C         -6.84910         5.87198        -0.99799
C         -5.57270         5.17157        -0.69209
C         -4.53277         5.90344         0.11556
C         -3.32081         5.13011         0.66766
C         -2.51824         5.77327         1.80490
C         -1.20983         5.04136         2.00180
C          0.07051         5.80620         2.22885
C          1.36563         5.05684         2.05394
C          2.60286         5.83848         1.62273
C          3.88124         5.08731         1.25690
C          4.98030         5.76188         0.45394
C          6.00094         4.88399        -0.25739
C          6.59818         5.39608        -1.52403
C          7.66211         4.56213        -2.19537
C         -6.88629         7.39234        -0.94903
C         -5.59615         8.08966        -0.45142
C         -4.97170         7.24828         0.70666
C         -3.87122         8.01152         1.47611
C         -2.66668         7.27472         2.15337
C         -1.32064         8.00435         1.92048
C         -0.00255         7.29907         1.98087
C          1.12101         8.02877         1.22119
C          2.44055         7.25969         1.13007
C          3.49792         7.92083         0.24924
C          4.78151         7.19038        -0.06046
C          5.69914         7.72280        -1.17717
C          6.40278         6.65053        -1.95682
C         -5.85457         9.53502        -0.07508
C         -4.91217        10.21912         0.58554
C         -3.83834         9.50774         1.33613
C         -2.50246        10.21683         1.55567
C         -1.39426         9.27437         1.13578
C         -0.56373         9.45708         0.09405
C          0.54833         8.44467        -0.14577
C          1.59775         8.96713        -1.06381
C          3.02948         9.09322        -0.64134
C          3.87314         9.31242        -1.86949
C          5.01155         8.67335        -2.13079
C        -10.14213        -0.43107        -3.01230
C         -9.45570        -1.25753        -1.98150
C         -8.46200        -0.56820        -1.07662
C         -7.33533        -1.38492        -0.51220
C         -6.12035        -0.66170         0.01671
C         -4.77994        -1.39138        -0.12627
C         -3.55244        -0.74040         0.58639
C         -2.36449        -1.52095         1.07817
C         -1.32188        -0.85399         2.00184
C          0.03420        -1.62181         2.09300
C          1.33060        -0.88936         2.27615
C          2.66846        -1.65236         2.26267
C          3.92215        -0.87229         1.90167
C          5.15520        -1.61782         1.44584
C          6.18998        -0.92823         0.59524
C          7.15687        -1.75613        -0.22239
C          7.87482        -1.07240        -1.32129
C          8.94621        -1.82454        -2.00433
C          9.72560        -1.14314        -3.04722
C         -9.36369        -2.71538        -2.13596
C         -8.32572        -3.44972        -1.56838
C         -7.25673        -2.80258        -0.90752
C         -6.10353        -3.58875        -0.43110
C         -4.90044        -2.89498         0.14971
C         -3.61521        -3.67621         0.37809
C         -2.42506        -3.02149         1.00659
C         -1.10103        -3.74530         1.12349
C          0.09648        -3.09704         1.74933
C          1.44932        -3.79939         1.46534
C          2.67722        -3.16267         2.13645
C          3.98914        -3.91166         1.93897
C          5.23514        -3.13649         1.52865
C          6.22359        -3.88442         0.68145
C          7.01859        -3.24045        -0.22685
C          7.65868        -3.97936        -1.38854
C          8.91143        -3.31627        -1.94974
C         -8.44600        -4.97417        -1.54921
C         -7.12637        -5.72059        -1.45411
C         -5.92575        -4.92213        -1.08810
C         -4.56209        -5.54812        -1.12970
C         -3.31747        -4.77390        -0.63963
C         -2.10711        -5.66879        -0.28776
C         -0.93137        -5.06133         0.41316
C          0.15888        -5.97979         0.93486
C          1.35677        -5.34104         1.59029
C          2.62931        -6.16280         1.77584
C          3.96031        -5.44756         1.87455
C          5.22486        -6.18218         1.47098
C          6.36391        -5.36854         0.88870
C          7.34168        -6.12948        -0.02808
C          7.88769        -5.42675        -1.16153
C         -7.00179        -6.99974        -1.88430
C         -5.72559        -7.75480        -1.82515
C         -4.49926        -7.04201        -1.32619
C         -3.53596        -7.83538        -0.49247
C         -2.28467        -7.15403         0.08239
C         -1.01591        -7.97760        -0.17376
C          0.26910        -7.33156         0.26079
C          1.54770        -8.15820         0.42204
C          2.60160        -7.61909         1.38811
C          3.87499        -8.41348         1.23419
C          5.19099        -7.68045         1.18571
C          6.27040        -8.33357         0.40568
C          7.25860        -7.60040        -0.16387
C         -5.75558        -9.24268        -1.76614
C         -4.69487        -9.96194        -1.35396
C         -3.57992        -9.32873        -0.59727
C         -2.31371       -10.07798        -0.37738
C         -1.11921        -9.46143        -0.22603
C          0.18421       -10.24088        -0.22085
C          1.25941        -9.65945         0.71870
C          2.56379       -10.40956         0.53505
C          3.76644        -9.78876         0.66194
C          5.01609       -10.45673         0.33715
C          6.17991        -9.77267         0.20041
O         -0.96066        -5.14382        -1.03788
O         -7.01395         0.68765        -2.45338
O          7.02107         4.27687         0.61039
O         -3.38981        -3.79722         1.79625
O          3.09899         0.21535        -0.01875
H          2.87877         1.04459        -0.49297
O         -7.06814        -1.19707         0.94798
O         -1.34541         3.15147         0.18251
O          1.43188         9.23578         1.94566
H          1.71431         8.96226         2.84706
O          4.77280        -8.41610         2.37208
O         -4.60871        -7.37067        -2.73936
O         -5.91367        -3.44991         1.02761
O         -4.45271         8.88547         2.50663
O         -4.16883        -8.62286         0.57395
O          5.89471         2.77258        -2.40077
O         -0.12414        -7.38240        -1.15024
O         -2.25309         5.04017         3.03097
O          4.88776        -5.95887         2.86324
O          4.70960         8.18679         1.00354
O          0.74446        -9.78680         2.05115
H          1.36259        -9.35737         2.68216
O          5.02311        -3.54998         2.88891
O          0.55749        -1.37811         3.42576
O          6.68838        -3.85850        -2.50247
H          5.95035        -4.48337        -2.34024
O         -5.08204        -4.84748        -2.29638
O         -7.14604         7.90427        -2.26749
H         -7.59445         7.21263        -2.79627
O         -0.48550         8.06961         3.12036
O         -4.21123         3.15492        -1.24257
O         -2.36895         5.16936        -0.40902
H         -2.83208         4.83975        -1.21811
O          7.53577        -1.20267         1.08690
O         -7.11096         1.31079         0.98398
H         -6.81538         0.96569         1.85659
O          8.88832         4.73460        -1.47034
H          8.68070         4.65359        -0.51021
O          3.08392        10.32802         0.12975
H          2.56780        10.16886         0.96513
O         -0.47110         0.66973         0.27043
H         -1.14232         0.39711        -0.39906
O          5.66428         1.97901         2.06521
O         -9.19274        -5.44431        -2.66876
H         -8.65354        -5.31820        -3.47644
O         -2.74832         1.56343         3.05595
H         -2.70588         0.67070         3.48473
O         -0.81048        -3.85836         2.55948
O         -2.48470        11.42164         0.80392
H         -1.67647        11.92085         1.03728
O          2.34460        -7.23085         2.74786
O          7.69411        -5.69378         1.35703
O          5.04905        -0.98866         2.77061
O          3.63425         3.37601         2.93126
O          5.05915         5.67847         1.88762
O         -2.94671         7.35908         3.55124
H         -2.41822         6.66470         4.00659
O          0.86796         5.44573         3.38531
O         -2.37179        -0.95449        -0.27144
O         -0.34746         1.37142         3.81480
H          0.45927         1.56771         4.34277
O         -2.44274        -7.08530         1.51406
H         -3.05260        -7.81146         1.79043
O         -4.30389         3.73261         2.37561
H         -4.03089         2.95505         2.92157
O         -1.90897        -0.90455         3.30602
H         -1.16649        -0.89281         3.96082
O         -6.32372         3.12721        -2.94898
O          6.75928         8.47927        -0.54220
H          6.35663         8.91798         0.24343
O         -4.78138         1.04963         1.87688
O         -4.47158         5.85909        -1.34268
O          9.76339        -2.63906        -1.04044
O          2.66768        -2.53414         3.42357
O          0.29407        -5.94982         2.36843
O         -2.90617        -3.93715        -1.75117
H         -2.84592        -4.49034        -2.55948
O         -4.51750        -1.29638        -1.54184
H         -3.64333        -1.70899        -1.73182
O          2.32473         0.94673         3.40341
O          2.89707         6.96863         2.48159
O         -4.64869         8.21731        -1.53059
H         -5.18333         8.21709        -2.35796
O         -6.02098         6.94919         1.64765
H         -5.93778         7.59867         2.38548
O          0.71718       -10.22543        -1.55475
H          0.01890       -10.51478        -2.17728
O        -10.29240         1.68143        -0.77502
H        -10.43929         0.74813        -0.47660
O         -0.00981         7.21286        -0.70955
H         -0.59865         7.44377        -1.45947
O          1.74834        -3.56302         0.05254
H          1.04449        -3.95839        -0.50944
O          2.25726        -8.06800        -0.83698
H          1.69170        -8.50957        -1.51698
O         -9.77527        -0.87241        -0.55406
H         10.51536        -1.70765        -3.56207
H         10.04787         0.66007        -4.13233
H          8.91590         2.70728        -3.71226
H          7.83419         4.93056        -3.23842
H          6.93679         6.98693        -2.85958
H          5.57172         8.91702        -3.04681
H          3.48880        10.06094        -2.57961
H          1.26987         9.57166        -1.92552
H         -0.62693        10.36084        -0.53081
H         -2.37198        10.44245         2.65061
H         -4.98836        11.30553         0.73934
H         -6.69126        10.05792        -0.56277
H         -7.73422         7.69717        -0.26797
H         -8.84818         5.73536        -1.70985
H        -10.00482         3.75730        -2.18978
H        -10.60501         1.47659        -3.82162
H        -10.67972        -0.97443        -3.80494
H        -10.14614        -3.24841        -2.69766
H         -9.05507        -5.22315        -0.63559
H         -7.90014        -7.53750        -2.22586
H         -6.62698        -9.74779        -2.20968
H         -4.70095       -11.05960        -1.42847
H         -2.35854       -11.17817        -0.42121
H         -0.02754       -11.30408         0.08314
H          2.52435       -11.45276         0.18563
H          4.98236       -11.53403         0.11835
H          7.08841       -10.29405        -0.13445
H          8.02095        -8.09308        -0.78551
H          8.16094        -6.02529        -2.04435
H          9.43116        -3.89471        -2.74760
