         276
 CSIRO Nanostructure Databank - Neutral Graphene Oxide Data Set
C        -11.15663         0.62666         0.45175
C        -10.00391         1.42699         1.05306
C         -8.73397         0.64792         0.68778
C         -7.47873         1.35999         0.31618
C         -6.13524         0.61727         0.13026
C         -4.95223         1.37776         0.78586
C         -3.59436         0.66329         0.68104
C         -2.31536         1.40329         0.45750
C         -1.06754         0.60067         0.14693
C          0.23931         1.37036        -0.00994
C          1.37449         0.74227        -0.67697
C          2.67622         1.45032        -0.45327
C          3.93446         0.75678        -0.96748
C          5.11532         1.44039        -0.97727
C          6.43786         0.75250        -0.99481
C          7.55493         1.43018        -0.19153
C          8.96304         0.73143        -0.31405
C          9.88935         1.42966         0.67843
C         10.83742         0.64027         1.44470
C         -9.94915         2.87804         0.60800
C         -8.75401         3.59655         0.50160
C         -7.47464         2.83290         0.62604
C         -6.18252         3.55047         0.74016
C         -4.92760         2.86613         0.18412
C         -3.60416         3.61726         0.39797
C         -2.39745         2.82284        -0.11115
C         -1.07733         3.61225        -0.04853
C          0.26540         2.89770         0.26011
C          1.39840         3.64550        -0.45912
C          2.57555         2.92785        -0.74935
C          3.84885         3.67090        -0.86061
C          5.13694         2.92655        -0.98082
C          6.43854         3.68324        -0.81806
C          7.69778         2.92162        -0.51274
C          8.85950         3.64128         0.11697
C          9.81893         2.78007         0.86019
C         -8.67922         5.00081         0.40591
C         -7.37725         5.70450         0.09665
C         -6.17552         5.04212         0.75462
C         -4.85985         5.72801         0.82015
C         -3.58369         4.96210         0.62318
C         -2.28829         5.76566         0.81339
C         -1.07167         5.08038         0.20105
C          0.25708         5.80139         0.20124
C          1.37942         5.04552        -0.41122
C          2.58552         5.75612        -1.02806
C          3.78896         5.08210        -0.30000
C          5.10044         5.85562        -0.32384
C          6.40823         5.15072        -0.53944
C          7.60853         5.89696        -0.05988
C          8.77275         5.10995         0.53134
C         -7.32190         7.21212         0.21120
C         -6.15769         7.90187         0.38790
C         -4.87705         7.23216         0.74916
C         -3.59937         8.00851         0.73097
C         -2.38961         7.21780         0.31001
C         -1.16082         7.96913        -0.09671
C          0.18044         7.29296        -0.03147
C          1.31815         8.04088        -0.66442
C          2.56444         7.28955        -1.00343
C          3.87116         8.04799        -0.93526
C          5.12509         7.32239        -0.54908
C          6.45778         8.05357        -0.75428
C          7.61126         7.24374        -0.16824
C         -6.07305         9.32104         0.03852
C         -4.91942        10.02114        -0.01887
C         -3.62208         9.54071         0.59742
C         -2.35637        10.12869         0.02145
C         -1.19157         9.46439        -0.12691
C          0.05912        10.26342        -0.47487
C          1.37765         9.50738        -0.39942
C          2.55664        10.17022        -0.34342
C          3.86324         9.50780        -0.57313
C          5.12172        10.05690         0.00408
C          6.30105         9.41329        -0.07636
C        -11.08440        -0.69418         0.16549
C         -9.88070        -1.51405         0.33749
C         -8.76165        -0.82817         1.09190
C         -7.41201        -1.53551         0.99258
C         -6.14578        -0.81223         0.67639
C         -4.90833        -1.59718         0.25683
C         -3.56458        -0.87643         0.62495
C         -2.52865        -1.40132        -0.40628
C         -1.15919        -0.78813        -0.29306
C         -0.06409        -1.42629        -0.99067
C          1.27038        -0.59720        -1.20023
C          2.53223        -1.35836        -1.51504
C          3.87418        -0.67520        -1.41395
C          5.17878        -1.54902        -1.43343
C          6.42948        -0.73857        -1.06078
C          7.55944        -1.47284        -0.40214
C          8.83792        -0.77818        -0.05557
C          9.74188        -1.49415         0.90011
C         10.78563        -0.71486         1.53777
C         -9.78293        -2.79805        -0.09045
C         -8.48407        -3.58424        -0.07633
C         -7.49131        -3.06286         0.97503
C         -6.13017        -3.75131         0.80140
C         -4.82753        -3.02728         0.77063
C         -3.47603        -3.71393         0.48787
C         -2.53331        -2.94339        -0.45205
C         -1.27940        -3.67834        -0.82721
C         -0.01390        -2.91985        -1.06214
C          1.14954        -3.58753        -1.31359
C          2.46543        -2.87534        -1.46977
C          3.72303        -3.57550        -0.99795
C          4.95031        -2.80633        -0.56953
C          5.88272        -3.28685         0.30554
C          7.22287        -2.62311         0.53261
C          8.43375        -3.62797         0.54404
C          9.60176        -2.83449         1.11463
C         -8.62323        -5.08544         0.09293
C         -7.47432        -5.87851         0.26042
C         -6.16766        -5.15028         0.28794
C         -4.88421        -5.88776         0.14583
C         -3.57346        -5.17980         0.13465
C         -2.43854        -5.85288        -0.22418
C         -1.20827        -5.16266        -0.61980
C         -0.10354        -5.84352        -1.06006
C          1.13600        -5.08483        -1.36714
C          2.40038        -5.80395        -0.97873
C          3.54391        -4.96273        -0.42459
C          4.79526        -5.78202        -0.57422
C          5.78232        -4.35653         1.39790
C          6.89953        -5.38403         1.49525
C          8.14877        -4.92083         1.28236
C         -7.45737        -7.26705         0.10749
C         -6.22923        -8.13932         0.23190
C         -4.90940        -7.35815         0.41134
C         -3.61789        -8.09508         0.29486
C         -2.36919        -7.32431        -0.03680
C         -1.16103        -8.05792        -0.47903
C         -0.10926        -7.35922        -1.32323
C          1.31564        -8.08193        -1.15275
C          2.25656        -7.17908        -0.31172
C          3.58495        -7.85701         0.00967
C          4.77552        -7.09727        -0.16403
C          6.17736        -7.79802         1.39200
C          6.61979        -6.72157         2.10061
C         -6.00537        -9.09537        -0.94265
C         -4.85084        -9.77191        -1.05436
C         -3.72435        -9.59123        -0.04147
C         -2.40056       -10.21865        -0.42906
C         -1.22710        -9.54614        -0.54355
C          0.07917       -10.18115        -0.43994
C          1.22984        -9.46240        -0.48837
C          2.54302       -10.13010        -0.14009
C          3.61390        -9.19368         0.40973
C          4.62587        -9.73386         1.28354
C          5.68060        -9.07622         1.87509
O          1.87199        -8.30813        -2.39777
O         -2.07355         7.38041        -1.10015
O          5.06848        -4.17248         2.36889
O          0.55484         6.74376         1.27157
O         -4.19001         7.65856         2.01321
O          5.10258         6.78322         0.81998
O         -0.08766         0.66430         1.25023
O          1.64426         7.73569        -2.05848
O          2.04213        -5.69905        -2.35323
O         -2.77197         1.17337         1.81091
O         -8.42118         0.93322        -0.71068
O          3.39086        -3.49176        -2.40499
O         -2.38378        -3.40650        -1.81067
O         -1.12437         4.54760        -1.16088
O         -6.53206        -1.01036         2.05670
O          0.27267        -0.75392        -2.26007
O         -5.35353        -3.49210         2.03894
O         -5.11912         2.86614        -1.20212
O         -6.83887         3.06825         1.93726
O         -4.16181        -7.73217         1.60829
O          3.17264        -0.80263        -2.70276
O          8.71102        -1.58078        -1.28975
O          6.05126        -7.69629        -0.03521
O          4.43542         3.45646        -2.17099
O         -1.24538        -7.61851         0.91246
O          0.60157         3.08962         1.59308
O         -5.59072        -5.39522        -1.05878
O          6.87189         0.08215        -2.19622
O          6.59847         4.65436        -1.89838
O         -5.68217         5.46253         2.04323
O          4.05648         9.03724        -1.97744
O          8.82260         3.35636        -1.31145
O        -10.21396         1.50012         2.48167
H        -10.05632         0.58560         2.83356
O          3.43089         4.90690         1.08260
H          3.75757         5.68568         1.58984
O          5.43586        -1.98165        -2.76893
H          4.57849        -2.00417        -3.25732
O         -5.23935         1.38591         2.17467
H         -4.42150         1.62932         2.66402
O          7.10632         1.33725         1.18048
H          7.81932         1.66388         1.77180
O         -3.21335        -1.32088         1.93320
H         -2.69632        -0.60317         2.37017
O          2.67404         5.38581        -2.40938
H          2.09911         5.99571        -2.92461
O          2.29427       -11.23518         0.72646
H          2.95568       -11.93298         0.55204
O         -2.58165         2.57291        -1.52274
H         -3.54788         2.72594        -1.74495
O         -6.48803        -8.94514         1.39928
H         -5.71024        -9.55705         1.50480
O          8.63237         5.10313         1.96231
H          8.52036         6.02597         2.27008
O          6.71675         8.25601        -2.15055
H          5.92883         8.71080        -2.53162
O          0.11099        11.46285         0.29564
H         -0.02652        11.23926         1.23881
O         -2.74845        -3.74223         1.74839
H         -3.41380        -3.80395         2.47084
O         -7.15666         5.43380        -1.33301
H         -7.94714         5.72730        -1.83303
O         -0.47553        -7.53159        -2.69408
H          0.38149        -7.78157        -3.14761
O         -2.88596        -0.87569        -1.70773
H         -2.67655        -1.58845        -2.36232
O         -2.05007         5.82264         2.23155
H         -2.83706         6.24403         2.64981
O         -7.99927        -3.49065         2.25033
H         -7.30616        -3.27543         2.91397
O          1.59916        -6.92292         0.95825
H          1.23088        -7.76161         1.31522
O         -9.12351        -0.89286         2.50068
H         -8.28327        -0.82365         3.01030
O          3.19050        -4.75519         0.95943
H          2.71994        -5.54593         1.32003
O         -3.64271        10.10676         1.94134
H         -4.14420         9.46794         2.50348
O         -7.84310        -3.36512        -1.36280
H         -8.39280        -3.76492        -2.06801
O         -5.93061         0.49563        -1.27988
H         -5.73819         1.41819        -1.63151
O         -5.01622        -1.88134        -1.14659
H         -5.26313        -1.04981        -1.62726
O         -4.13584       -10.29092         1.16928
H         -3.59247        -9.93541         1.90606
O          9.48728         0.91067        -1.62524
H          8.94684         0.35384        -2.23360
O          8.72513        -4.10453        -0.78479
H          8.99393        -3.32480        -1.33227
O          7.15015        -2.00756         1.85017
H          6.52212        -2.51192         2.41315
O          5.88577        -5.30424        -1.20139
H          6.57697        -6.00571        -1.19754
O          2.86513         1.57664         1.00917
H          2.07952         2.08267         1.39911
H         11.51915        -1.24852         2.15998
H         11.61111         1.19016         2.00208
H         10.48454         3.26574         1.59035
H          9.73722         5.62817         0.26055
H          8.50803         7.81011         0.13467
H          7.20412         9.89176         0.33375
H          5.06468        11.04311         0.49050
H          2.54680        11.25828        -0.17122
H         -0.03996        10.58251        -1.55071
H         -2.33992        11.22809        -0.05202
H         -4.94871        11.06989        -0.35177
H         -7.00502         9.79462        -0.30860
H         -8.21498         7.77193        -0.11438
H         -9.61217         5.58821         0.41464
H        -10.90476         3.42611         0.56202
H        -12.11156         1.15329         0.29518
H        -11.97273        -1.19941        -0.24730
H        -10.63832        -3.25384        -0.61737
H         -9.60333        -5.56948        -0.04776
H         -8.41687        -7.79774        -0.00213
H         -6.82084        -9.26431        -1.66270
H         -4.70910       -10.49355        -1.87332
H         -2.38196       -11.31986        -0.40813
H          0.11976       -11.23179        -0.10993
H          2.97434       -10.53243        -1.10697
H          4.40281       -10.74448         1.66559
H          6.19576        -9.56068         2.71923
H          6.68618        -6.79985         3.19794
H          9.01615        -5.57667         1.46317
H         10.32030        -3.35079         1.77099
