         292
 CSIRO Nanostructure Databank - Neutral Graphene Oxide Data Set
C        -11.21241         0.30406         0.25826
C         -9.94447         1.12016         0.50748
C         -8.67854         0.50458        -0.04333
C         -7.61144         1.25914        -0.45839
C         -6.37898         0.59795        -0.94780
C         -5.10612         1.35970        -1.04480
C         -3.84204         0.58244        -1.03709
C         -2.61967         1.45157        -1.27388
C         -1.28772         0.68579        -1.19095
C         -0.00608         1.45021        -1.01706
C          1.25166         0.70511        -0.73888
C          2.38343         1.42010        -0.43335
C          3.54751         0.66231         0.17747
C          4.87656         1.43425         0.32476
C          6.19723         0.73240         0.35894
C          7.54070         1.47180         0.38598
C          8.69197         0.97564        -0.50559
C         10.01704         1.51467        -0.03236
C         11.19590         0.63614        -0.03775
C        -10.11621         2.55980        -0.03051
C         -8.83499         3.37267         0.03944
C         -7.58555         2.70447        -0.29813
C         -6.38486         3.40547        -0.33784
C         -5.10700         2.78806        -0.62498
C         -3.92037         3.49294        -0.60369
C         -2.63853         2.72816        -0.38395
C         -1.37597         3.55281        -0.69489
C         -0.08335         2.82877        -0.35113
C          1.20241         3.61162        -0.48610
C          2.36538         2.87982        -0.35927
C          3.66022         3.60093        -0.30951
C          4.93808         2.88581        -0.02122
C          6.17029         3.66594         0.47843
C          7.47606         2.97904         0.01595
C          8.75696         3.67033         0.58884
C         10.02145         2.84846         0.27248
C         -8.86287         4.72707         0.25385
C         -7.65162         5.51463         0.29623
C         -6.34026         4.76734         0.29692
C         -5.21705         5.62060        -0.22926
C         -3.95212         4.97605        -0.69851
C         -2.69192         5.86270        -0.83279
C         -1.37813         5.03943        -0.89798
C         -0.03346         5.82978        -0.91215
C          1.19418         5.06674        -0.41876
C          2.34734         5.75410        -0.12228
C          3.64696         5.04054         0.17391
C          4.91291         5.81377        -0.25845
C          6.21794         5.09924        -0.06645
C          7.51642         5.82651         0.11437
C          8.69045         5.15716         0.23715
C         -7.64178         6.87962         0.43052
C         -6.39750         7.62705         0.57435
C         -5.19434         7.00400         0.30128
C         -3.91337         7.59210         0.70503
C         -2.60437         6.88545         0.34300
C         -1.45857         7.87347         0.11085
C         -0.16146         7.25253        -0.31121
C          1.01727         7.86394         0.43558
C          2.35796         7.19665         0.20986
C          3.62836         7.98242         0.15476
C          4.93808         7.34849        -0.29223
C          6.08474         7.84708         0.63843
C          7.45320         7.35484         0.09086
C         -6.39769         9.03156         0.92590
C         -5.24057         9.71973         1.11479
C         -3.93909         9.03261         1.18574
C         -2.68682         9.89886         1.23669
C         -1.40298         9.21375         0.80200
C         -0.26745         9.95181         0.80432
C          1.02971         9.48155         0.16677
C          2.30737         9.97826         0.75482
C          3.58105         9.52534         0.08396
C          4.87030        10.06480         0.68642
C          5.99383         9.34582         0.83561
C        -11.41047        -0.95019        -0.18588
C        -10.42192        -1.93136        -0.71762
C         -8.39717        -0.91853         0.29029
C         -7.61121        -1.67371        -0.76048
C         -6.38413        -0.89494        -1.14469
C         -5.07069        -1.58611        -1.53712
C         -3.83236        -0.77657        -1.10079
C         -2.60295        -1.47530        -0.61485
C         -1.27266        -0.70055        -0.51152
C         -0.04186        -1.53414        -0.91005
C          1.25506        -0.77144        -0.97977
C          2.57129        -1.49622        -0.88844
C          3.76487        -0.73274        -0.41776
C          4.94480        -1.51199         0.18798
C          6.22628        -0.71070        -0.02308
C          7.53545        -1.34766        -0.23816
C          8.83908        -1.04143         0.21939
C         10.03881        -1.60427        -0.51892
C         11.23211        -0.71380        -0.19061
C        -10.03999        -3.05051        -0.00844
C         -8.85142        -3.86198        -0.28179
C         -7.67400        -3.19819        -0.98957
C         -6.29394        -3.77514        -0.51396
C         -5.04227        -3.09588        -1.16352
C         -3.76981        -3.78904        -0.75951
C         -2.59653        -2.94470        -0.32767
C         -1.26645        -3.60498         0.09627
C         -0.04407        -3.07247        -0.72171
C          1.23552        -3.59164        -0.02772
C          2.53901        -2.92703        -0.37237
C          3.82381        -3.73044        -0.33406
C          5.12792        -2.91868        -0.43633
C          6.42228        -3.64014         0.13138
C          7.67138        -3.37149        -0.75171
C          8.96077        -3.85480        -0.10776
C         10.08731        -3.09191        -0.06010
C         -8.74431        -5.15768         0.12407
C         -7.56424        -5.99372        -0.20445
C         -6.32459        -5.30617        -0.70004
C         -4.98998        -6.02416        -0.70381
C         -3.85560        -5.17261        -0.08737
C         -2.52530        -5.92105        -0.22235
C         -1.27461        -5.12746        -0.05069
C         -0.07200        -5.82676         0.51707
C          1.25441        -5.01746         0.64787
C          2.39882        -5.91256         0.10515
C          3.76953        -5.19089         0.01152
C          5.02104        -5.86546         0.50918
C          6.33511        -5.15744         0.36290
C          7.59329        -5.93862         0.11107
C          8.81247        -5.31594         0.03526
C         -7.42902        -7.33567         0.38140
C         -6.22657        -8.02709         0.44533
C         -5.02484        -7.39757        -0.05182
C         -3.80174        -8.04894        -0.08166
C         -2.53057        -7.40021         0.03872
C         -1.37885        -8.10608         0.38534
C         -0.09918        -7.33383         0.55486
C          1.19140        -8.11260         0.37806
C          2.40392        -7.27019         0.89884
C          3.70958        -8.07584         0.84464
C          5.02513        -7.36861         0.61995
C          6.24408        -8.15173         0.21122
C          7.46079        -7.40401        -0.33090
C         -6.18585        -9.22482         1.29618
C         -5.11781        -9.96363         1.72517
C         -3.78427        -9.84298         1.16583
C         -2.53622        -9.97539         1.70710
C         -1.34309        -9.41591         1.05809
C         -0.12465       -10.03962         1.31704
C          1.15959        -9.51222         0.94082
C          2.31836       -10.24459         0.85751
C          3.64930        -9.57619         0.72281
C          4.82854       -10.21608         0.08823
C          5.99012        -9.56897        -0.16689
O          1.37628        -8.47164        -1.08867
O          5.62675         5.28881        -1.40173
O          0.68808         7.66390         1.81466
H          1.52095         7.72451         2.33552
O          6.87838        -0.86428        -1.35720
O          1.87051        -2.70241         0.92503
O         -4.22620        -3.80631        -2.13277
O          3.72321         4.89367         1.63487
H          3.56879         5.79398         2.01687
O          3.54223        -0.97135        -1.82887
O         -2.78774         6.59513        -2.05634
H         -3.62453         6.32477        -2.50451
O         -3.00433        -2.00333         0.71703
O          0.50578        -1.17306        -2.19513
O         -4.98843         5.43462        -1.66050
O          6.01354        -7.82444         1.60007
O         -4.09316        -5.00596         1.31395
H         -4.88374        -4.39079         1.41838
O         -0.49165         1.07506        -2.34732
O         -6.07693         4.51896         1.78420
O         -7.21099        -5.87322        -1.67927
O          4.54477         3.16606        -1.38677
O          5.48830         1.05939         1.59751
O          9.05937        -1.01935         1.56087
H          8.39892        -0.43048         2.00655
O          3.03687         0.46369         1.52163
H          3.67270        -0.12777         1.99742
O          5.29580        -2.69950        -1.82910
H          5.27831        -3.56020        -2.29878
O          3.88081        -8.92036         2.03334
O         -2.82715         1.88415        -2.62713
H         -1.94421         1.95589        -3.06318
O         -1.40598         4.10889        -2.02817
O          7.97736         1.33803         1.75502
H          7.27774         1.74727         2.31655
O         -7.51976        -1.05373        -2.07203
O          3.93785        -4.75338        -1.38370
O          4.66692        -1.62624         1.59079
H          5.44095        -2.08182         2.00603
O          5.68422        -5.32228         1.68921
O         -4.63935        -6.29928        -2.07759
H         -5.48236        -6.40224        -2.57452
O         -0.92791         8.05719        -1.23913
O          5.21096         7.77649        -1.63773
H          5.54192         6.97677        -2.12398
O          7.47198         3.17693        -1.39847
H          7.79358         2.37504        -1.88183
O         -1.69933        -5.56862        -1.37327
O         -3.79945        -9.44205        -0.18394
O         -8.56423        -1.30510         1.44274
O          7.65246        -3.37483        -1.99326
O         -0.16454         2.52848         1.07243
H          0.62144         1.99625         1.32646
O          0.37285        -7.86351        -1.88560
O         -5.93385         1.18386        -2.24580
O          7.34437        -7.39624        -1.75980
H          8.07244        -6.86209        -2.13959
O         -3.90909         7.93110         2.15572
O          5.92970         7.22702         1.93719
H          5.12677         7.60364         2.35910
O          1.47336        -4.75646         2.02404
H          0.67848        -4.29225         2.36767
O          2.01393        -6.20810        -1.23906
H          2.43073        -5.55268        -1.84600
O          8.51377         0.80474        -1.72713
O         -2.66313         2.25114         0.97963
H         -3.06718         2.93877         1.55579
O          3.20996         7.46786         1.45564
O         -0.70862        -8.86423        -1.90722
H         -1.40683        -8.37800        -2.41248
O         -7.84479        -3.43422        -2.38746
H         -7.18563        -2.89323        -2.88200
O          9.87529        -1.58125        -1.93462
H          9.02693        -2.02113        -2.18443
O         -0.28458        -6.53751         1.77326
O          2.19446        -7.01748         2.28394
H          2.59558        -7.76349         2.78601
O         -4.65813         4.28184         1.96027
H         -4.32971         5.14258         2.32622
O         -6.19363        -3.50486         0.84870
O          8.50505         7.90998         0.87296
H          8.37459         7.60935         1.79658
O         -1.00585        -3.32171         1.47485
H         -1.52371        -2.51333         1.71603
O         -0.08480        -3.65956        -2.02452
H          0.24054        -2.99172        -2.67293
O        -10.54467         2.50302        -1.39905
H         -9.86204         2.03091        -1.92048
O          8.77246         3.71350         2.04112
H          7.87733         3.99959         2.34320
O         -9.78799         1.20349         1.94292
H         -9.48959         0.31274         2.24797
O          6.11982         3.71281         1.91623
H          5.24411         4.11460         2.16331
O         -2.23848         6.07841         1.49287
H         -2.38142         6.64217         2.28981
O         -5.02830        -1.54315        -2.98070
H         -5.22482        -0.61578        -3.25024
O         -2.89200        11.05615         0.40960
H         -2.53826        10.87320        -0.48553
O          0.94445         9.71098        -1.22563
H          1.85391         9.87802        -1.57864
O          3.58079         9.91079        -1.31061
H          4.29092         9.39352        -1.76427
O         -1.06653        -0.38607         0.88847
H         -1.72485         0.29379         1.16607
O          0.28115         6.05465        -2.30192
H         -0.48963         6.52622        -2.69359
O          6.77455        -3.09689         1.43680
H          6.56816        -3.79156         2.10854
O        -10.03735        -1.69493        -1.98972
H         -9.41655        -2.39711        -2.31191
H         12.21795        -1.20393        -0.13700
H         12.15467         1.14225         0.16822
H         10.97884         3.32652         0.54347
H          9.61225         5.75046         0.35882
H          7.57805         7.73176        -0.95693
H          6.90503         9.83787         1.21282
H          4.89575        11.14660         0.89066
H          2.35170        10.02406         1.85672
H         -0.30294        10.97650         1.20699
H         -2.57550        10.27043         2.29063
H         -5.24963        10.81324         1.22620
H         -7.36197         9.56020         0.94364
H         -8.59181         7.42829         0.51328
H         -9.82548         5.24250         0.39104
H        -10.92205         3.07652         0.54514
H        -12.11423         0.83615         0.60722
H        -12.45193        -1.32027        -0.15716
H        -10.52752        -3.21426         0.96423
H         -9.58510        -5.64130         0.64375
H         -8.31062        -7.75383         0.89281
H         -7.15412        -9.45703         1.77104
H         -5.28097       -10.68750         2.53903
H         -2.40229       -10.43351         2.69859
H         -0.13998       -11.00685         1.84325
H          2.31635       -11.31577         1.11434
H          4.71360       -11.25629        -0.25333
H          6.79079       -10.09873        -0.70510
H          8.39743        -7.96066        -0.03519
H          9.71228        -5.94032        -0.10831
H         11.04117        -3.51590         0.29679
