         630
 CSIRO Nanostructure Databank - Neutral Graphene Oxide Data Set
C         22.99315        27.54305        -1.29682
C         22.99693        28.91685        -1.21280
C         23.07790        31.88125        -1.12717
C         23.13141        33.25315        -1.02332
C         23.41834        36.14864        -1.25027
C         23.34491        37.48111        -1.04939
C         22.99462        40.43437        -0.15455
C         22.99238        41.77290         0.13228
C         22.87508        44.56717         1.10305
C         22.91707        45.84880         0.70016
C         25.43149        24.67056        -1.25892
C         24.23681        25.38315        -1.35567
C         25.43926        27.51641        -1.25206
C         24.21721        26.80984        -1.32418
C         25.44608        28.91811        -1.06166
C         24.21332        29.64720        -1.07185
C         25.46308        31.73107        -0.60347
C         24.23918        31.07641        -0.93885
C         25.48201        33.12885        -0.33060
C         24.31977        33.92305        -0.61076
C         25.46559        36.00113         0.14096
C         24.38457        35.34372        -0.53195
C         25.44255        37.38694         0.34904
C         24.12071        38.10456         0.07850
C         25.38822        40.24988         0.68498
C         24.21554        39.61349        -0.04038
C         25.04420        41.51234         1.30944
C         24.05625        42.36771         0.90877
C         25.42954        44.50988         1.19609
C         24.09292        43.78785         1.51916
C         25.40923        45.88214         0.79068
C         24.17042        46.56612         0.57845
C         25.35371        48.64819         0.14831
C         24.16441        47.92542         0.24953
C         27.96353        23.17245        -1.11037
C         27.93305        24.59632        -1.17922
C         26.68435        25.30709        -1.25428
C         27.95036        27.47515        -1.05686
C         26.71774        26.78397        -1.55989
C         27.92097        28.86137        -0.79290
C         26.68735        29.59984        -0.81809
C         27.89023        31.65864        -0.15062
C         26.68317        30.98637        -0.52034
C         27.84861        33.02201         0.26501
C         26.65828        33.74633         0.18552
C         27.80624        35.82038         1.10879
C         26.48433        35.10255         0.84560
C         27.82233        37.32517         1.19255
C         26.57141        38.09787         0.92586
C         27.83869        40.21653         1.45912
C         26.57002        39.46765         1.14783
C         27.93856        41.71269         1.31035
C         26.88428        42.51148         1.70207
C         27.91009        44.54777         0.91724
C         26.69602        43.88101         1.30266
C         27.88348        45.93830         0.65077
C         26.62878        46.61600         0.60074
C         27.84864        48.76153         0.22911
C         26.59680        48.01827         0.32163
C         27.87576        50.16122         0.13525
C         30.40398        23.14358        -1.14010
C         29.15227        22.47620        -1.08916
C         30.41291        24.57896        -1.14980
C         29.17484        25.29801        -1.16871
C         30.38160        27.45344        -0.89473
C         29.16988        26.75333        -1.04845
C         30.37963        28.84841        -0.63152
C         29.14047        29.55501        -0.51489
C         30.36643        31.63448        -0.00288
C         29.12843        30.93762        -0.19024
C         30.36896        32.99768         0.39948
C         29.08217        33.61849         0.90833
C         30.26759        35.84004         0.88505
C         29.09086        35.13413         0.85908
C         30.30379        37.29814         0.89821
C         29.11617        38.00853         0.99024
C         30.29937        40.21469         0.65456
C         29.12615        39.47054         1.19500
C         30.36179        41.68290         0.74324
C         29.15708        42.38993         0.94362
C         30.36381        44.51066         0.59291
C         29.14209        43.81978         0.83808
C         30.34391        45.93424         0.43913
C         29.11193        46.64116         0.43155
C         30.32294        48.78126         0.17751
C         29.09291        48.06130         0.26488
C         30.31225        50.20394         0.13333
C         29.08417        50.86623         0.11599
C         32.90192        20.30230        -1.07593
C         31.69971        21.01301        -1.22807
C         32.89684        23.15399        -1.38320
C         31.64063        22.41087        -1.23577
C         32.90527        24.61338        -1.14502
C         31.66161        25.27773        -1.11389
C         32.89467        27.43887        -0.74641
C         31.66355        26.76854        -1.28162
C         32.84205        28.80931        -0.53714
C         31.61535        29.55436        -0.50547
C         32.81652        31.70514        -0.11605
C         31.60733        30.96213        -0.23126
C         32.82330        33.05395         0.27840
C         31.57315        33.68980         0.54466
C         32.84836        35.86928         0.98630
C         31.55328        35.10341         0.97309
C         32.80432        37.33727         0.81641
C         31.58510        37.99112         0.78194
C         32.84486        40.19139         0.48028
C         31.57839        39.43711         0.48129
C         32.83186        41.61491         0.44782
C         31.59847        42.35276         0.55234
C         32.83174        44.49852         0.43364
C         31.60207        43.78901         0.52825
C         32.81784        45.92538         0.28529
C         31.57083        46.65141         0.26330
C         32.79528        48.77662        -0.11334
C         31.56498        48.05732         0.15144
C         32.79073        50.16125        -0.25146
C         31.62695        50.94785         0.30845
C         32.78087        53.01884        -0.50580
C         31.63846        52.38087        -0.14507
C         35.33920        18.80988        -0.45266
C         35.33303        20.25505        -0.48873
C         34.13931        20.93459        -0.93362
C         35.44022        23.10083        -0.85620
C         34.22903        22.36646        -1.22063
C         35.47335        24.57441        -1.19230
C         34.14174        25.29841        -1.00326
C         35.36401        27.38537        -0.51175
C         34.15078        26.70829        -0.75949
C         35.33155        28.81212        -0.02788
C         34.11596        29.55160        -0.51316
C         35.34950        31.72824        -0.05120
C         34.09547        31.03496        -0.37231
C         35.33629        33.10467         0.18214
C         34.07876        33.79268         0.37265
C         35.31864        35.91160         0.61241
C         34.09486        35.16415         0.62189
C         35.29620        37.32864         0.66698
C         34.05256        38.04892         0.64972
C         35.33542        40.16905         0.18237
C         34.04850        39.45811         0.51072
C         35.31668        41.64671         0.49729
C         34.08742        42.33363         0.45682
C         35.30395        44.46742         0.49882
C         34.07896        43.77400         0.46985
C         35.27343        45.93456         0.50366
C         34.02499        46.63957         0.17624
C         35.25772        48.70436        -0.36423
C         34.04290        48.03650        -0.13216
C         35.31721        50.07598        -0.84913
C         33.95709        50.87435        -0.76829
C         35.27503        52.99063        -0.90561
C         34.03577        52.33471        -0.70062
C         35.31738        54.44351        -0.92033
C         37.62385        18.75173         0.45122
C         36.43534        18.09571        -0.10614
C         37.68748        20.28510         0.34897
C         36.50908        20.97386        -0.22368
C         37.81593        23.10524        -0.17179
C         36.57079        22.40449        -0.42595
C         37.78685        24.53281        -0.18161
C         36.64434        25.26181        -0.53155
C         37.79554        27.43894        -0.22178
C         36.61324        26.69589        -0.41852
C         37.82899        28.87750        -0.28576
C         36.59392        29.59629        -0.25503
C         37.79986        31.74374        -0.19170
C         36.57649        31.00361        -0.16770
C         37.81536        33.12403         0.04681
C         36.57739        33.82274         0.27178
C         37.80901        35.93166         0.62934
C         36.56700        35.21594         0.49514
C         37.79685        37.32375         0.89409
C         36.54381        38.05841         0.78131
C         37.71698        40.21744         1.10581
C         36.53996        39.44468         0.70371
C         37.78377        41.67300         0.83897
C         36.55420        42.35078         0.60702
C         37.80476        44.46869         0.44132
C         36.55756        43.78591         0.53087
C         37.84295        45.90240         0.27570
C         36.57807        46.66463         0.38186
C         37.82412        48.74844        -0.42397
C         36.52314        47.98673        -0.29038
C         37.80223        50.20770        -0.52109
C         36.57215        50.86130        -0.76218
C         37.80054        52.99694        -1.03367
C         36.51280        52.27064        -0.91267
C         37.77644        54.51333        -1.13416
C         36.46124        55.16027        -0.99480
C         40.17549        15.98908        -0.18944
C         38.98504        16.59547         0.03486
C         40.20945        18.75962         0.60643
C         38.90803        17.97492         0.55282
C         40.21065        20.24628         0.50271
C         39.01058        20.96832         0.35098
C         40.25019        23.11096         0.32053
C         39.02594        22.40555         0.16874
C         40.28984        24.53361         0.28114
C         39.00076        25.24283         0.26767
C         40.32834        27.41916        -0.04977
C         39.03939        26.76233         0.14424
C         40.34068        28.81638        -0.62630
C         39.04830        29.55549        -0.37167
C         40.33683        31.77487        -0.51875
C         39.02964        31.01183        -0.51996
C         40.30478        33.19403        -0.09871
C         39.06987        33.84648         0.12804
C         40.27902        35.94238         0.62475
C         39.04832        35.23339         0.47984
C         40.25618        37.34393         0.90171
C         39.03490        38.01763         1.04831
C         40.26978        40.26290         1.43558
C         38.99804        39.46813         1.35441
C         40.27508        41.70773         1.12665
C         39.02195        42.36549         0.87001
C         40.28970        44.45898         0.46451
C         39.04667        43.77243         0.56961
C         40.31741        45.86159        -0.08920
C         39.02118        46.58387         0.12511
C         40.28798        48.82023         0.24437
C         39.01053        48.06364         0.15745
C         40.27731        50.25744        -0.09906
C         39.04827        50.92292        -0.37712
C         40.23884        53.05559        -0.39101
C         39.05103        52.32682        -0.59619
C         40.17594        54.53930        -0.31999
C         38.99924        55.27809        -0.77023
C         40.27703        57.37395        -0.88732
C         39.05534        56.65569        -0.89364
C         42.65710        16.02072        -0.44680
C         41.43457        16.69023        -0.05058
C         42.71959        18.75409         0.42139
C         41.44757        18.03850         0.26087
C         42.71328        20.23294         0.41227
C         41.47985        20.91272         0.49531
C         42.76925        23.08414         0.49484
C         41.47965        22.38088         0.81272
C         42.76547        24.57280         0.73944
C         41.47341        25.28001         0.39035
C         42.77352        27.44202         0.15319
C         41.50293        26.71026         0.18278
C         42.80407        28.86236         0.00400
C         41.58061        29.61128        -0.24856
C         42.85001        31.73817        -0.39326
C         41.58235        30.98495        -0.32891
C         42.83149        33.26384        -0.35361
C         41.52732        33.88961         0.10791
C         42.78386        35.91752         0.89934
C         41.51350        35.24020         0.45427
C         42.81610        37.41411         0.74637
C         41.50713        38.15537         0.65639
C         42.79636        40.29601         1.10780
C         41.56149        39.52339         1.30160
C         42.77881        41.69158         1.09057
C         41.49824        42.39145         0.99393
C         42.76927        44.51428         0.61391
C         41.51721        43.79649         0.68291
C         42.77792        45.93703         0.42558
C         41.55295        46.65828         0.26878
C         42.77296        48.79362         0.20120
C         41.55533        48.05452         0.24123
C         42.76044        50.22974         0.09258
C         41.49684        50.96771        -0.02890
C         42.71753        53.15303         0.04648
C         41.45915        52.38644        -0.11472
C         42.76582        54.56918        -0.37439
C         41.52171        55.33281        -0.29277
C         42.75394        57.33125        -1.06274
C         41.49576        56.72337        -0.74708
C         43.85845        16.64931        -0.45122
C         45.22765        18.81289        -0.13042
C         44.00649        18.00548         0.10040
C         45.19685        20.22329         0.08510
C         43.95465        20.92573         0.31316
C         45.23396        23.06147         0.21322
C         43.95781        22.37543         0.34422
C         45.24429        24.53204         0.03834
C         43.94852        25.27553         0.12266
C         45.24096        27.40677         0.27571
C         43.99308        26.74500         0.24205
C         45.25968        28.82526         0.30454
C         44.04034        29.53069         0.12356
C         45.33187        31.69186         0.32287
C         44.11963        30.97981        -0.11903
C         45.29253        33.13381         0.42037
C         44.07225        33.84966         0.29474
C         45.27690        35.95489         0.55879
C         44.06912        35.23952         0.49905
C         45.26602        37.43670         0.32045
C         43.98807        38.09521         0.77245
C         45.31513        40.25417         1.03662
C         44.05401        39.50156         1.31579
C         45.28625        41.69955         1.45351
C         44.01081        42.42618         1.06118
C         45.24278        44.57555         0.87830
C         44.01372        43.83407         0.86446
C         45.25151        45.95587         0.58000
C         44.00625        46.65760         0.41359
C         45.23937        48.78557         0.09925
C         44.00582        48.07749         0.24026
C         45.22661        50.19572        -0.07928
C         43.98534        50.90384        -0.01876
C         45.23629        53.06739        -0.46908
C         44.02546        52.37910         0.01839
C         45.20225        54.44242        -0.78507
C         43.94888        55.19899        -0.72650
C         43.91574        56.60924        -1.04628
C         47.63333        18.89026        -0.49084
C         46.43080        18.18361        -0.46315
C         47.66415        20.26440        -0.21112
C         46.43164        20.94438         0.00710
C         47.70067        23.16589        -0.16522
C         46.42528        22.37915         0.09384
C         47.69162        24.47406         0.62906
C         46.48092        25.28427         0.26623
C         47.73345        27.38702         0.54844
C         46.48697        26.66848         0.35639
C         47.72962        28.80268         0.59262
C         46.50255        29.52607         0.46171
C         47.72657        31.63300         0.98862
C         46.48390        30.95313         0.57962
C         47.73245        33.15130         0.98946
C         46.48608        33.85458         0.67025
C         47.75570        35.99108         0.64963
C         46.50583        35.26490         0.60210
C         47.74941        37.42313         0.69489
C         46.53592        38.14066         0.70644
C         47.78232        40.27298         0.91037
C         46.52035        39.56121         0.87573
C         47.74122        41.72102         1.02055
C         46.56211        42.42365         1.11921
C         47.76188        44.63166         0.85886
C         46.52604        43.92282         1.35040
C         47.74055        45.97483         0.49133
C         46.48577        46.68023         0.41800
C         47.70594        48.77957        -0.08508
C         46.48207        48.07275         0.14000
C         47.68156        50.18111        -0.35485
C         46.45342        50.89847        -0.32230
C         47.63963        52.97906        -0.96817
C         46.43893        52.31575        -0.59224
C         47.58649        54.35855        -1.27767
C         46.40349        55.06491        -1.20501
C         50.16044        20.26858        -0.01662
C         48.93883        20.98098        -0.07681
C         50.18395        23.07100         0.31501
C         48.96755        22.37999         0.08008
C         50.19427        24.52404         0.50117
C         48.98124        25.24854         0.52193
C         50.21581        27.37300         0.78159
C         48.97422        26.65990         0.62612
C         50.19912        28.78628         0.84560
C         48.98495        29.51404         0.72708
C         50.21813        31.67750         0.82674
C         49.00548        30.92950         0.83579
C         50.20935        33.12686         0.75846
C         49.00490        33.85191         0.77761
C         50.21554        35.99154         0.57012
C         48.98249        35.27595         0.65057
C         50.20714        37.40717         0.64681
C         49.00495        38.13112         0.75110
C         50.26060        40.29255         0.73250
C         48.99742        39.57495         0.83118
C         50.27820        41.70418         0.77897
C         49.03982        42.42502         1.11593
C         50.28402        44.60697         0.62455
C         49.04239        43.94227         1.02760
C         50.23013        46.00063         0.31521
C         48.97703        46.68541         0.23959
C         50.18399        48.77374        -0.29309
C         48.95805        48.07559        -0.04712
C         50.15389        50.16419        -0.63869
C         48.90909        50.86826        -0.66244
C         50.10221        52.89348        -1.33126
C         48.88660        52.24786        -0.99791
C         51.35976        20.93272         0.14742
C         52.66915        23.01448         0.51475
C         51.40589        22.33671         0.32128
C         52.64719        24.43743         0.87382
C         51.41321        25.21926         0.71125
C         52.71565        27.32898         0.88188
C         51.45516        26.63464         0.84702
C         52.76421        28.78562         1.09718
C         51.43365        29.54544         1.11018
C         52.69257        31.67810         0.68947
C         51.45746        30.99307         0.84875
C         52.67649        33.10429         0.49974
C         51.44767        33.82698         0.58157
C         52.65486        35.92916         0.15039
C         51.44825        35.24899         0.44887
C         52.56846        37.40408        -0.15768
C         51.54395        38.09834         0.74861
C         52.66423        40.29225         0.27615
C         51.48047        39.59147         0.51890
C         52.69199        41.71387         0.33529
C         51.48383        42.42477         0.59589
C         52.73318        44.54348         0.36586
C         51.49224        43.86706         0.54638
C         52.71031        46.01450         0.39225
C         51.44267        46.71916         0.14211
C         52.67351        48.79082        -0.48203
C         51.43518        48.09267        -0.18577
C         52.62762        50.14351        -0.91923
C         51.36347        50.84488        -0.96067
C         51.30176        52.21325        -1.31482
C         55.12516        23.08145         0.35344
C         53.90240        22.38053         0.38713
C         55.19722        24.47091         0.45193
C         53.98915        25.20284         0.84570
C         55.17051        27.37150         0.55135
C         53.94143        26.66404         0.70607
C         55.18324        28.81081         0.55400
C         53.99574        29.53566         0.77583
C         55.13230        31.69823         0.34846
C         53.94323        30.97102         0.65415
C         55.09189        33.06457         0.06128
C         53.87925        33.79633         0.18355
C         55.09135        35.94504        -0.25618
C         53.86667        35.22958         0.00178
C         55.07782        37.40769        -0.26344
C         53.89566        38.10575        -0.11826
C         55.17228        40.28343        -0.03406
C         53.86526        39.59495        -0.32514
C         55.16420        41.66753         0.11380
C         53.93727        42.41496         0.19617
C         55.20805        44.56304         0.02772
C         53.95434        43.84192         0.23614
C         55.21795        45.96214        -0.14268
C         54.00720        46.75619         0.11088
C         55.12343        48.76892        -0.81401
C         53.92750        48.12797        -0.41673
C         55.04332        50.10625        -1.27340
C         53.83494        50.77301        -1.31084
C         57.64547        24.55304        -0.05694
C         56.40398        25.23293         0.25899
C         57.69820        27.36696         0.51134
C         56.38676        26.63428         0.37984
C         57.62636        28.83898         0.18595
C         56.43585        29.51519         0.32807
C         57.64183        31.69472        -0.10996
C         56.46137        31.00948         0.54060
C         57.59360        33.06757        -0.39775
C         56.26098        33.74436        -0.60951
C         57.50519        35.92498        -0.73813
C         56.30001        35.24746        -0.44710
C         57.45709        37.39708        -1.08549
C         56.30935        38.13563        -0.46086
C         57.64646        40.20543        -0.37722
C         56.38102        39.52564        -0.25425
C         57.74337        41.62976        -0.03200
C         56.43742        42.40725         0.23358
C         57.66581        44.52694        -0.26049
C         56.44346        43.85263        -0.02071
C         57.65158        45.94071        -0.48966
C         56.41804        46.65734        -0.46489
C         57.61886        48.72472        -0.97111
C         56.39638        48.06214        -0.74098
C         58.80791        25.23387        -0.27328
C         60.01182        27.37380        -0.39716
C         58.86852        26.65964        -0.12361
C         60.02841        28.79500        -0.31606
C         58.87753        29.53187        -0.08000
C         60.03174        31.70040        -0.56184
C         58.86231        30.98473        -0.22976
C         59.99819        33.07173        -0.75161
C         58.77738        33.77676        -0.71314
C         59.89458        35.94410        -1.24729
C         58.72607        35.22239        -0.93343
C         59.92923        37.34839        -1.22033
C         58.78298        38.10195        -0.99080
C         60.01852        40.27589        -0.98925
C         58.81129        39.52825        -0.79424
C         60.06046        41.64615        -0.87046
C         58.93251        42.39370        -0.43462
C         60.11511        44.56281        -0.61678
C         58.91345        43.80892        -0.40133
C         60.09980        45.92339        -0.75997
C         58.86454        46.64580        -0.74010
C         58.82653        48.03853        -0.95950
O         28.68614        39.76583         2.56921
O         37.36377        19.59001         1.60936
O         38.13222        39.82706         2.47849
O         34.49594        50.33596        -2.01617
O         35.94634        46.58499         1.68374
O         43.54364        18.15617         1.48603
O         30.68947        39.73569        -0.67680
O         49.15278        43.23476         2.34949
O         25.31135        40.20187        -0.79639
O         25.84960        41.87617         2.40555
O         32.25417        35.36674         2.24476
O         57.28313        41.95701         1.33271
O         38.85626        26.08490         1.45690
O         53.50031        46.61251         1.48555
O         52.12165        29.18260         2.35718
O         47.64057        32.38577         2.24959
O         34.24164        30.36665        -1.71292
O         44.43413        24.85563        -1.17918
O         43.47062        52.90349         1.28082
O         39.44363        48.58267         1.45994
O         41.00699        39.78433         2.62334
O         33.69499        22.75366        -2.54793
O         40.75025        55.05975         0.91602
O         37.94809        53.69376        -2.34072
O         37.27212        48.01124        -1.56247
O         43.69964        31.29559        -1.52119
O         39.67313        31.48342        -1.79989
O         39.58737        18.20323         1.82186
O         27.79379        36.49888         2.41925
O         53.38547        24.74067         2.09832
O         35.44755        40.10547        -1.29753
H         34.61551        40.47226        -1.66733
O         52.05475        37.53554        -1.53042
H         52.57127        36.92457        -2.09865
O         56.70909        31.15774         1.99020
H         57.40585        30.51320         2.24129
O         45.23049        37.57949        -1.15779
H         44.51560        36.99719        -1.49450
O         23.31337        37.92069         1.29261
H         23.24440        36.95548         1.45627
O         35.73196        24.64375        -2.64496
H         35.02492        24.09728        -3.06912
O         31.75798        26.96514        -2.75434
H         31.85970        27.92855        -2.91415
O         47.70822        23.54192        -1.57026
H         47.62602        22.72585        -2.10603
O         57.13825        37.40537        -2.55137
H         57.95197        37.11042        -3.01496
O         46.54099        44.07427         2.83604
H         47.46387        43.83431         3.10802
O         31.84675        51.00282         1.76798
H         31.82221        50.08088         2.10308
O         41.39900        38.50604        -0.77921
H         41.35970        37.67031        -1.29230
O         52.03358        37.91321         2.10710
H         51.38839        38.31731         2.72424
O         40.43584        45.69729        -1.56186
H         39.64773        45.19825        -1.86666
O         29.00441        33.26862         2.32644
H         29.73036        33.73704         2.79160
O         35.15480        28.72872         1.43475
H         35.90181        28.20360         1.79496
O         47.55349        24.08917         2.03197
H         47.59170        24.90148         2.57946
O         26.83285        26.85080        -3.04603
H         26.04713        26.38993        -3.41164
O         40.42406        28.67158        -2.08789
H         40.31367        29.57889        -2.46057
O         42.74450        35.73990         2.36734
H         43.35392        36.39504         2.77245
O         42.94584        24.73907         2.18396
H         42.32494        24.10552         2.62013
O         45.23503        41.70342         2.94740
H         45.54940        42.60775         3.22655
O         41.36827        22.44937         2.30740
H         40.60233        21.88996         2.56594
O         44.06677        39.26374         2.77887
H         44.34088        40.11724         3.20320
O         42.93288        33.71957        -1.74241
H         43.41639        33.00917        -2.22976
O         53.66083        39.77051        -1.78382
H         52.90372        39.17881        -2.02171
O         25.86702        34.81319         2.13133
H         26.28782        35.42189         2.78528
O         57.98999        27.34668         1.96874
H         58.00948        26.40475         2.24394
O         55.98107        33.54662        -2.05194
H         56.63260        34.08675        -2.54902
O         23.98753        43.67730         2.96022
H         24.70079        43.06758         3.26297
H         22.04169        26.99529        -1.35791
H         22.03746        29.45169        -1.21221
H         22.12538        31.40846        -1.40258
H         22.21955        33.83717        -1.20984
H         22.78802        35.66923        -2.01297
H         22.63535        38.09946        -1.61721
H         22.08132        39.96051        -0.54211
H         22.09431        42.36886        -0.08560
H         21.90427        44.06875         1.23933
H         21.98897        46.39197         0.46612
H         25.37012        23.57668        -1.17047
H         23.28176        24.83926        -1.37529
H         25.30101        49.71819        -0.09251
H         23.20328        48.43376         0.08643
H         27.02360        22.60544        -1.08900
H         26.93975        50.73508         0.11688
H         29.11651        21.37935        -1.05599
H         29.04578        51.96367         0.09421
H         32.82343        19.21465        -0.94745
H         30.77002        20.42843        -1.22395
H         32.72834        54.09937        -0.70083
H         30.71890        52.97283        -0.03727
H         34.45763        18.26888        -0.82003
H         34.37257        54.99352        -0.81990
H         36.42116        17.00360        -0.21978
H         36.41447        56.25489        -0.90725
H         40.20113        14.94830        -0.54430
H         38.05783        16.04223        -0.16764
H         40.26208        58.43956        -1.15718
H         38.14636        57.21040        -1.16589
H         42.57536        14.99284        -0.83021
H         42.77192        58.39712        -1.33262
H         44.73439        16.14267        -0.88019
H         44.85083        57.12646        -1.29538
H         48.55717        18.34129        -0.71382
H         46.45177        17.10178        -0.65082
H         48.49338        54.89431        -1.58506
H         46.41650        56.13017        -1.46656
H         50.17191        19.17433        -0.10145
H         50.11033        53.95708        -1.60049
H         52.28648        20.34512         0.17547
H         52.21653        52.76343        -1.56861
H         56.03269        22.49526         0.15690
H         53.94400        21.29837         0.20371
H         55.94707        50.63364        -1.60531
H         53.82625        51.81026        -1.66923
H         57.63963        23.46205        -0.17607
H         57.63250        49.80672        -1.15776
H         59.71488        24.69692        -0.58864
H         60.91920        26.84984        -0.73263
H         60.97677        29.30155        -0.53737
H         60.99682        31.18427        -0.64556
H         60.94011        33.59352        -0.96328
H         60.83999        35.41511        -1.42050
H         60.90956        37.83583        -1.31244
H         60.92584        39.75471        -1.32134
H         60.99390        42.16524        -1.12630
H         61.07879        44.03732        -0.65199
H         61.03740        46.47677        -0.91305
H         59.76625        48.58030        -1.13826
