         410
 CSIRO Nanostructure Databank - Neutral Graphene Oxide Data Set
C         28.23807        27.64852         2.53556
C         28.23231        29.08964         2.37473
C         27.00337        29.77641         2.39416
C         28.11301        31.81294         1.68436
C         26.94571        31.11868         2.05001
C         28.00411        33.18298         1.11267
C         26.86591        34.04570         1.49045
C         27.85188        35.92868         0.23800
C         26.78018        35.31264         1.05111
C         27.78636        37.41452        -0.09830
C         26.65587        38.26559         0.31494
C         27.82651        40.27075        -0.45493
C         26.68729        39.61011         0.14627
C         27.83651        41.66377        -0.73704
C         26.62580        42.46281        -0.71801
C         27.88028        44.54260        -1.08744
C         26.62188        43.78249        -1.04396
C         27.93030        45.93661        -1.53889
C         30.67968        27.56897         2.26371
C         29.36481        26.91542         2.39528
C         30.71464        29.07100         2.10227
C         29.42328        29.79417         2.06438
C         30.61739        31.91887         1.44372
C         29.35898        31.15589         1.69574
C         30.57037        33.26268         0.79065
C         29.24603        33.87428         0.58912
C         30.35073        35.99104        -0.08309
C         29.19080        35.31140         0.28722
C         30.28061        37.38373        -0.48786
C         29.06015        38.08737        -0.41004
C         30.06819        40.03519        -1.45501
C         28.98802        39.47905        -0.71534
C         29.97819        41.40181        -1.83165
C         29.01848        42.25991        -1.29366
C         30.43279        44.50047        -1.54275
C         29.19156        43.73443        -1.22782
C         30.39329        45.90093        -1.50926
C         29.12033        46.58106        -1.65437
C         33.08401        24.67171         1.58347
C         31.94304        25.44962         2.00772
C         32.90306        27.46448         0.92877
C         31.83811        26.78209         1.76597
C         33.00764        28.97386         1.08865
C         31.91974        29.70119         1.49310
C         33.07229        31.83113         0.74940
C         31.92780        31.17403         1.40312
C         33.07007        33.34485         0.73929
C         31.70839        33.95579         0.44607
C         32.81482        36.02460        -0.42864
C         31.63844        35.32893        -0.05334
C         32.78149        37.40109        -0.89388
C         31.46534        38.02674        -1.00583
C         33.13657        40.35510        -1.80224
C         31.23167        39.24371        -1.67495
C         33.06787        41.77533        -1.62475
C         31.92070        42.52629        -1.94498
C         32.86457        44.55405        -1.01138
C         31.72862        43.85165        -1.52225
C         32.81846        45.99433        -0.95295
C         31.62887        46.66155        -1.37147
C         32.87317        48.76403        -1.34346
C         31.69016        48.06372        -1.53455
C         35.40909        23.15448         0.64344
C         35.44315        24.55426         0.78429
C         34.23173        25.28220         1.16498
C         35.48870        27.51708         0.86297
C         34.23468        26.77506         1.16884
C         35.40536        28.93186         0.39208
C         34.21934        29.64195         0.60785
C         35.38260        31.74960        -0.08352
C         34.19510        31.08678         0.42228
C         35.35258        33.16839        -0.31239
C         34.17019        33.93227        -0.10261
C         35.25359        36.00561        -0.83105
C         34.07888        35.30503        -0.44332
C         35.26617        37.41077        -0.94071
C         34.01597        38.11925        -1.05434
C         35.34274        40.26894        -0.85251
C         34.12443        39.56662        -1.21660
C         35.34336        41.70469        -0.70515
C         34.13756        42.44584        -0.96689
C         35.18401        44.52509        -0.08904
C         34.04792        43.83287        -0.72206
C         35.14334        46.04423        -0.03085
C         33.99130        46.73724        -0.64499
C         35.32150        48.85633        -0.73636
C         34.05251        48.12547        -0.89218
C         35.39863        50.25474        -0.97198
C         37.76216        23.09430         0.03733
C         36.54768        22.44277         0.28195
C         37.81402        24.50720         0.12214
C         36.66009        25.23412         0.52221
C         37.92691        27.41357         0.07008
C         36.73990        26.71060         0.65857
C         37.79846        28.84139        -0.34702
C         36.57738        29.57864        -0.15187
C         37.69665        31.67660        -0.99043
C         36.52437        30.98182        -0.42007
C         37.75248        33.15273        -0.94450
C         36.53604        33.82846        -0.78237
C         37.84158        36.01819        -1.14225
C         36.47257        35.24792        -1.09208
C         37.78030        37.43698        -0.81770
C         36.53646        38.11368        -0.86042
C         37.81203        40.23801        -0.59885
C         36.52990        39.53531        -0.71937
C         37.79838        41.74814        -0.38220
C         36.50245        42.42044        -0.34308
C         37.68563        44.51785         0.10418
C         36.48678        43.82202        -0.06753
C         37.71569        45.99479         0.19493
C         36.44081        46.78149         0.08822
C         37.76407        48.86064        -0.34048
C         36.50418        48.18305        -0.38544
C         37.80151        50.27306        -0.52859
C         36.58859        50.94149        -0.83560
C         40.26685        20.31380         0.38887
C         39.08311        20.94929         0.28531
C         40.24650        23.04348        -0.48662
C         38.94558        22.27019        -0.43714
C         40.21055        24.41484        -0.63869
C         39.01978        25.20939        -0.32516
C         40.19531        27.30621        -1.09457
C         39.03177        26.58309        -0.45393
C         40.22715        28.77982        -0.77412
C         38.97911        29.47659        -0.73773
C         40.28424        31.62320        -0.97066
C         39.01039        30.90092        -1.08212
C         40.26810        33.08264        -1.15339
C         39.00107        33.84725        -1.05134
C         40.27603        35.95881        -0.57137
C         39.06389        35.24665        -0.92148
C         40.24885        37.35613        -0.28979
C         39.00088        38.09482        -0.42631
C         40.16604        40.16029         0.33709
C         39.00181        39.46983        -0.23615
C         40.13331        41.64363         0.58408
C         38.96914        42.44101         0.16613
C         40.17497        44.58614         0.43971
C         38.94367        43.82584         0.24107
C         40.21974        45.93942         0.19869
C         38.98538        46.64501        -0.31410
C         40.20707        48.81562         0.02064
C         38.98862        48.14284        -0.13053
C         40.24551        50.25209        -0.12284
C         39.06376        50.96821        -0.43370
C         40.34210        53.03756        -0.65498
C         39.14186        52.37614        -0.67518
C         42.73717        20.26642         0.11447
C         41.51265        20.94250        -0.01695
C         42.74737        22.93835        -0.64927
C         41.50320        22.29987        -0.44344
C         42.74137        24.36614        -1.00499
C         41.45373        25.12899        -0.99834
C         42.66031        27.27735        -0.65166
C         41.49995        26.60390        -0.84104
C         42.65230        28.72807        -0.36842
C         41.41772        29.48203        -0.66345
C         42.72264        31.62791        -0.46786
C         41.45676        30.92639        -0.68703
C         42.72707        33.01668        -0.41190
C         41.56840        33.82122        -0.81609
C         42.67127        35.93261        -0.07256
C         41.50174        35.25141        -0.45243
C         42.66451        37.31716         0.15657
C         41.45370        38.04881         0.06314
C         42.65542        40.20414         0.49663
C         41.47336        39.47377         0.31132
C         42.69557        41.63424         0.62515
C         41.42636        42.35949         0.83717
C         42.71147        44.55397         0.60861
C         41.42059        43.86576         0.79917
C         42.70053        45.95577         0.50651
C         41.45306        46.68619         0.34120
C         42.66112        48.83776         0.71405
C         41.43422        48.07971         0.26773
C         42.71409        50.26256         0.22720
C         41.50692        50.94504        -0.07734
C         42.79853        53.01223        -0.38441
C         41.55146        52.33823        -0.37282
C         43.95255        20.90532        -0.13196
C         45.26087        22.98626        -0.72283
C         43.98903        22.26524        -0.49331
C         45.25516        24.35933        -0.88283
C         43.99637        25.09970        -0.67736
C         45.21219        27.35726        -0.61777
C         43.96162        26.57623        -0.49341
C         45.22879        28.71283        -0.37691
C         43.95500        29.44615        -0.15333
C         45.20490        31.57793        -0.21721
C         43.96578        30.91464        -0.27414
C         45.23824        33.00892        -0.17383
C         43.95288        33.71097         0.01257
C         45.19816        35.94496         0.00699
C         43.93374        35.19525         0.16453
C         45.21143        37.30836         0.18261
C         43.93404        37.98698         0.52069
C         45.20574        40.23040         0.46938
C         43.94027        39.48979         0.64715
C         45.17819        41.63612         0.49869
C         43.91390        42.35158         0.61119
C         45.16863        44.50720         0.54060
C         43.92426        43.79864         0.60909
C         45.17818        45.93288         0.52710
C         43.94690        46.67190         0.50273
C         45.17765        48.79437         0.52448
C         43.95011        48.07985         0.49581
C         45.18351        50.22381         0.47875
C         43.94107        50.94517         0.21303
C         43.96379        52.32940        -0.11577
C         47.72318        23.01738        -0.87892
C         46.54197        22.32322        -0.76785
C         47.77877        24.44541        -1.02470
C         46.47936        25.12275        -1.14971
C         47.72018        27.34803        -0.78113
C         46.44683        26.65994        -1.01411
C         47.69342        28.70639        -0.42565
C         46.47509        29.43925        -0.32662
C         47.67286        31.60511        -0.11488
C         46.46218        30.86184        -0.18733
C         47.68528        33.01769        -0.18744
C         46.43275        33.71493        -0.21866
C         47.71742        35.94723        -0.31029
C         46.41373        35.19218        -0.34030
C         47.67685        37.39036         0.02967
C         46.44285        38.07312         0.17600
C         47.66833        40.21957         0.30822
C         46.43417        39.50183         0.33803
C         47.65438        41.65835         0.37133
C         46.41690        42.36432         0.45524
C         47.64823        44.50808         0.52902
C         46.41358        43.79194         0.50211
C         47.64880        45.93209         0.61666
C         46.41438        46.64602         0.58237
C         47.63789        48.79272         0.74565
C         46.41328        48.07577         0.60821
C         47.60003        50.20326         0.77671
C         46.40596        50.89792         0.62662
C         50.26479        24.54399        -1.07520
C         48.96478        25.19994        -1.07410
C         50.17929        27.37824        -0.96633
C         48.95482        26.64732        -0.97081
C         50.22586        28.73047        -0.54117
C         48.96642        29.36911        -0.11679
C         50.21102        31.61574        -0.10992
C         48.94806        30.88958         0.06078
C         50.17710        33.03133        -0.07380
C         48.93197        33.74838        -0.11463
C         50.17476        35.86433         0.07943
C         48.96357        35.16555        -0.11472
C         50.19364        37.36580        -0.14775
C         48.89179        38.08886         0.12551
C         50.16695        40.20820         0.22479
C         48.90478        39.49716         0.23815
C         50.13807        41.66963         0.08208
C         48.87628        42.39347         0.31700
C         50.14087        44.51763         0.61239
C         48.89195        43.79529         0.45671
C         50.12263        45.93208         0.82296
C         48.88417        46.64889         0.75793
C         50.11070        48.74054         1.08293
C         48.88073        48.06447         0.86364
C         51.41028        25.22793        -1.26492
C         52.71318        27.36673        -1.18304
C         51.39830        26.70708        -1.56190
C         52.71362        28.79099        -0.66402
C         51.42338        29.48467        -0.46345
C         52.67371        31.63710        -0.19867
C         51.43139        30.89470        -0.21976
C         52.64386        33.01961        -0.00745
C         51.40664        33.74631         0.05545
C         52.63802        35.81255         0.75392
C         51.38183        35.15748         0.21923
C         52.60647        37.33089         0.80911
C         51.34201        38.07522         0.53346
C         52.62930        40.22839         0.60222
C         51.38383        39.54605         0.36545
C         52.66747        41.64101         0.59996
C         51.45931        42.41939         0.25167
C         52.58398        44.53598         0.92107
C         51.38461        43.84583         0.62165
C         52.57205        45.91579         1.20972
C         51.33553        46.63399         1.09018
C         51.29257        48.05008         1.21486
C         55.07311        27.61765        -1.84062
C         53.92741        26.89886        -1.87727
C         55.12381        28.95863        -1.28873
C         53.94252        29.58837        -0.82563
C         55.17415        31.67055        -0.50194
C         53.94371        30.96311        -0.49404
C         55.20350        33.04889         0.12712
C         53.90892        33.79145        -0.12054
C         55.16404        35.97470         0.39701
C         53.89703        35.26489         0.12790
C         55.12292        37.36244         0.72582
C         53.88370        38.07117         0.79322
C         55.07549        40.20563         1.05063
C         53.85483        39.49108         0.82651
C         55.06139        41.63131         1.17660
C         53.86385        42.33292         0.90727
C         55.12415        44.53387         1.37273
C         53.86621        43.80691         0.87202
C         54.94085        45.89506         1.88790
C         53.76528        46.55455         1.72480
C         56.32196        29.69633        -1.33560
C         56.34943        31.01881        -0.90399
C         56.39995        33.92102        -0.15101
C         56.37040        35.26654         0.09179
C         56.32621        38.11089         0.93040
C         56.29448        39.46660         1.13121
C         56.21508        42.34929         1.68121
C         56.22440        43.69414         1.86158
O         38.09143        41.16821        -1.72668
O         32.17147        39.72194        -2.60020
O         48.98422        29.97712         1.21350
O         41.37195        43.13798         2.08203
O         41.15801        33.56559        -2.20985
O         30.92386        41.92429        -2.72258
O         39.80847        40.71167         1.68302
O         31.01175        28.44379         3.40358
O         38.19682        31.18318        -2.27863
O         42.08301        24.68953        -2.27540
O         51.67077        37.71325         1.90975
O         43.86484        34.34221         1.37163
O         50.90793        42.14592        -1.07793
O         37.11982        35.62824        -2.34111
O         43.94716        38.61259         1.84364
O         37.12727        46.59142         1.37997
O         28.31836        33.12873        -0.32226
O         47.05049        35.65858        -1.59489
O         43.95923        25.67668         0.69154
O         37.80661        27.20319         1.53447
O         27.42455        36.38265        -1.09353
O         52.88487        27.61683         0.23506
O         31.48972        31.89040         2.64361
O         28.71305        44.24090         0.07186
O         34.81386        45.24305         1.14026
O         43.15946        28.98719         1.00228
O         35.00139        27.36492         2.25564
O         46.35614        26.00130        -2.33060
O         53.84214        34.73372        -1.24180
O         54.84045        44.38091        -0.05632
O         38.63943        21.92564        -1.83411
H         39.41502        21.44539        -2.19430
O         55.20947        32.80479         1.57539
H         55.97261        32.22557         1.78207
O         42.52575        48.94510         2.18538
H         42.44741        48.03320         2.53951
O         32.52356        27.24767        -0.46738
H         33.09968        27.80406        -1.03298
O         39.98478        27.24874        -2.54667
H         40.26093        26.35889        -2.85682
O         50.46177        37.53205        -1.57475
H         49.71808        37.13075        -2.07305
O         33.40626        33.75372         2.11487
H         32.80548        33.23619         2.70826
O         51.29925        26.85899        -3.01470
H         50.47844        26.40819        -3.30646
O         52.73484        35.36393         2.13840
H         52.12986        35.93575         2.66449
O         38.95619        46.42311        -1.76718
H         39.76302        46.82945        -2.14855
H         27.26749        27.14896         2.67153
H         26.08318        29.23112         2.64666
H         25.97364        31.62891         2.03018
H         26.08322        33.63799         2.14591
H         25.89764        35.91611         1.30559
H         25.74750        37.79028         0.71007
H         25.81816        40.21007         0.44965
H         25.66583        41.94563        -0.57948
H         25.67335        44.32113        -1.18499
H         26.98653        46.45595        -1.76070
H         29.31120        25.81759         2.38829
H         29.12049        47.64866        -1.91475
H         33.01707        23.57912         1.67425
H         31.15303        24.92406         2.56344
H         32.87090        49.84587        -1.53100
H         30.80102        48.62209        -1.85692
H         34.47385        22.60518         0.81286
H         34.49442        50.82019        -1.23240
H         36.47205        21.35392         0.16138
H         36.58005        52.02880        -0.98599
H         40.32208        19.31317         0.84410
H         38.17121        20.44137         0.63051
H         40.38566        54.11671        -0.86094
H         38.22931        52.94338        -0.89930
H         42.73419        19.21664         0.44173
H         42.82583        54.08563        -0.62072
H         44.88604        20.33980        -0.00772
H         44.91802        52.87105        -0.15317
H         48.66104        22.44538        -0.85607
H         46.58340        21.22968        -0.66913
H         48.52492        50.78160         0.89696
H         46.43726        51.99531         0.63600
H         50.30937        23.45690        -0.92089
H         50.13146        49.83460         1.16678
H         52.37458        24.69916        -1.27432
H         52.21778        48.61455         1.38855
H         55.98166        27.23389        -2.32836
H         53.88155        25.95009        -2.43139
H         55.77661        46.37195         2.42125
H         53.68789        47.58408         2.10016
H         57.24246        29.21474        -1.69462
H         57.30660        31.55826        -0.90625
H         57.36580        33.45281        -0.39097
H         57.31340        35.82902         0.02094
H         57.29279        37.59017         0.94410
H         57.24180        39.99620         1.29667
H         57.07701        41.76911         2.03797
H         57.06191        44.17836         2.38555
