         232
 CSIRO Nanostructure Databank - Neutral Graphene Oxide Data Set
C        -11.13274         0.61342         0.70353
C         -9.93623         1.36555         0.30483
C         -8.66790         0.71992         0.06733
C         -7.45416         1.42477         0.28978
C         -6.21021         0.71584         0.28917
C         -4.97637         1.44357         0.47280
C         -3.72342         0.65330         0.54682
C         -2.44972         1.41068         0.58471
C         -1.14504         0.78094         0.17203
C         -0.05797         1.31187         1.13292
C          1.22279         0.54264         0.81906
C          2.39502         1.00223         1.34851
C          3.70953         0.56812         0.96918
C          4.84622         1.37845         1.04483
C          6.15184         0.68446         0.93833
C          7.37465         1.40104         0.44918
C          8.66769         0.68428         0.37121
C          9.87572         1.38721         0.40109
C         11.11232         0.61851         0.35453
C         -9.93743         2.76171         0.38387
C         -8.72454         3.52637         0.36827
C         -7.49830         2.82450         0.48710
C         -6.24883         3.53252         0.75153
C         -4.97602         2.80007         0.69092
C         -3.71498         3.59545         0.98080
C         -2.51070         2.89366         0.32212
C         -1.19210         3.56402         0.62956
C         -0.01024         2.87406         0.94421
C          1.18039         3.67600         1.06946
C          2.41238         3.16932         1.56034
C          3.66368         3.71818         1.29749
C          4.90035         2.85981         1.37101
C          6.21751         3.59350         1.15476
C          7.39223         2.88853         0.53382
C          8.70734         3.58225         0.50845
C          9.88794         2.81220         0.45391
C         -8.69953         4.94878         0.17309
C         -7.50586         5.66705         0.06184
C         -6.24236         5.03499         0.47944
C         -4.94431         5.64984         0.12258
C         -3.77542         5.00365         0.40776
C         -2.47747         5.79178         0.33991
C         -1.19853         4.96425         0.38140
C          0.00177         5.65135         0.25142
C          1.22526         5.02564         0.60914
C          2.46657         5.74422         0.60881
C          3.67403         5.09458         0.89484
C          4.94135         5.86864         0.96279
C          6.24756         5.10731         1.04055
C          7.48018         5.74418         0.47601
C          8.69390         4.97878         0.43052
C         -7.43425         7.01139        -0.41542
C         -6.21914         7.66873        -0.64003
C         -4.95537         6.99121        -0.45685
C         -3.76296         7.58784        -0.84845
C         -2.51384         6.74017        -0.86438
C         -1.22195         7.53925        -1.00984
C          0.01920         6.97293        -0.40857
C          1.17209         7.86639        -0.14220
C          2.44413         7.20969         0.33442
C          3.69939         7.89472         0.00178
C          4.94952         7.29217         0.47750
C          6.27104         7.89831        -0.01187
C          7.45896         7.03095        -0.02427
C         -6.17248         9.01558        -1.14596
C         -4.98576         9.63029        -1.44355
C         -3.72490         8.94722        -1.30551
C         -2.50576         9.61552        -1.51467
C         -1.24453         9.00167        -1.28204
C         -0.02859         9.68800        -1.35108
C          1.22229         9.13129        -0.91171
C          2.45965         9.72470        -1.11078
C          3.69389         9.10593        -0.68929
C          4.95900         9.65012        -1.15744
C          6.15280         9.04200        -0.93168
C        -11.30240        -0.72935         0.91578
C        -10.37657        -1.74774         0.42698
C         -8.56988        -0.65949        -0.21839
C         -7.42213        -1.40024         0.05594
C         -6.19813        -0.69518         0.22563
C         -4.95726        -1.44882         0.09712
C         -3.69673        -0.76534         0.13148
C         -2.47945        -1.41144        -0.12760
C         -1.20872        -0.72799         0.01085
C         -0.01402        -1.37377        -0.24745
C          1.24199        -0.73076         0.11091
C          2.46072        -1.41377         0.02335
C          3.70160        -0.79798         0.45135
C          4.90104        -1.48211         0.40489
C          6.15330        -0.81489         0.75673
C          7.39062        -1.51252         0.27733
C          8.68004        -0.76530         0.16367
C          9.93430        -1.54177         0.27650
C         11.14240        -0.74730         0.31651
C         -9.96165        -2.95942         0.87897
C         -8.76012        -3.63154         0.19382
C         -7.45523        -2.85375         0.49249
C         -6.20642        -3.57716         0.02872
C         -5.00755        -2.82609        -0.15083
C         -3.81189        -3.49517        -0.77501
C         -2.47692        -2.81604        -0.52319
C         -1.31896        -3.46149        -0.86880
C         -0.01057        -2.70120        -0.98869
C          1.24374        -3.50229        -0.71732
C          2.52560        -2.69929        -0.80593
C          3.76271        -3.57282        -0.52611
C          4.98154        -2.89459         0.00243
C          6.12397        -3.68143         0.56217
C          7.44997        -2.95799         0.62076
C          8.69964        -3.70975         0.38936
C          9.91787        -2.92543         0.30388
C         -8.57095        -5.07426         0.62130
C         -7.37254        -5.71354         0.43924
C         -6.18577        -4.96933         0.01113
C         -4.95988        -5.67543        -0.30083
C         -3.79720        -4.98899        -0.55842
C         -2.59786        -5.68339        -1.08970
C         -1.32195        -4.89377        -1.27349
C         -0.01590        -5.65614        -1.27676
C          1.34469        -4.92642        -1.23350
C          2.48058        -5.71206        -0.58538
C          3.64590        -5.03792        -0.30228
C          4.81690        -5.77191         0.22469
C          6.13068        -5.11497         0.34888
C          7.36183        -5.82448         0.30351
C          8.62359        -5.08441         0.29073
C         -7.21649        -7.12826         0.73554
C         -6.09551        -7.82989         0.38926
C         -5.02382        -7.18714        -0.46799
C         -3.63144        -7.80383        -0.18176
C         -2.57188        -7.18196        -1.08903
C         -1.24197        -7.94625        -1.33947
C         -0.05862        -7.09517        -0.75366
C          1.23566        -7.83731        -1.07155
C          2.48233        -7.15717        -0.65667
C          3.62109        -7.91369        -0.41424
C          4.79382        -7.28563         0.21660
C          6.10820        -8.05373         0.40443
C          7.34552        -7.21835         0.15370
C         -5.97290        -9.24872         0.63279
C         -4.84744        -9.95509         0.31107
C         -3.64444        -9.31405        -0.16409
C         -2.47579       -10.00184        -0.35788
C         -1.23760        -9.35009        -0.72565
C         -0.05063       -10.02468        -0.71651
C          1.21215        -9.35242        -1.08291
C          2.50175       -10.04110        -0.91679
C          3.65837        -9.34035        -0.68948
C          4.96883        -9.98912        -0.71031
C          6.10263        -9.37392        -0.32452
O          5.67660         5.73198         2.21938
O         -2.43636         6.62190         1.52932
H         -2.51617         6.02750         2.30682
O         -2.63229         5.79457        -2.01140
H         -2.62752         3.93753        -1.41520
O          1.19473        -8.52903        -2.33346
O         -6.28637         4.51359         1.85542
O         -0.20032        -6.97154         0.67036
H         -0.43807        -7.84470         1.04915
O         -3.23885        -7.39851         1.16409
H         -3.88263        -7.78907         1.79294
O          6.34627        -0.22407         2.07982
O          2.34007         2.00606         2.32389
O         -0.23625         6.84688        -1.86576
O         -4.01776        -3.33794        -2.22563
H         -4.82911        -3.83242        -2.46993
O         -9.70714        -1.27993        -0.72988
O          5.83930         3.12599         2.47501
O          4.45018        -6.55802         1.44619
O         -2.99378         0.92696         1.82504
O          7.05899         2.23129        -0.74004
O          4.86543        -3.21312        -1.44466
O          1.55803         7.96613         1.25637
O         -0.42673         1.04362         2.48980
H          0.30546         1.35281         3.06549
O         -3.02036        -6.49247        -2.26856
O         -2.74224         3.00077        -1.12033
O         -7.37838        -2.79147         1.94963
H         -6.54185        -2.33969         2.19043
O         -5.41727        -7.47619        -1.82515
H         -4.71003        -7.11669        -2.41734
O          6.21550        -8.39922         1.82202
H          5.77440        -7.66401         2.31206
O          2.66698        -2.20294        -2.18231
H          3.58799        -2.42297        -2.46944
O         -2.59065         6.56594        -3.23584
H         -1.61614         6.68771        -3.37349
O          1.77934        -4.77001        -2.61125
H          0.96184        -4.56402        -3.13053
O         -8.92668        -3.64921        -1.23976
H         -9.79713        -4.04597        -1.44641
O          0.05155        -2.37261        -2.42020
H          0.96441        -2.03716        -2.61152
O          6.70406        -3.24458         1.83951
O         -1.01285        -8.09339        -2.69449
O         -3.51104         3.70332         2.40509
H         -4.38226         3.94235         2.79527
O         -0.74868         1.26024        -1.13967
H         -1.51016         1.72916        -1.55960
O          7.84880        -1.16886        -1.04323
O         -0.67508        -5.32037        -2.51700
O          5.73343         8.17721         1.32679
H         12.11026        -1.27042         0.32014
H         12.05970         1.17715         0.37846
H         10.85676         3.33280         0.42766
H          9.63845         5.51488         0.25327
H          8.37230         7.42477        -0.49715
H          7.06297         9.40900        -1.42938
H          4.91759        10.53302        -1.81279
H          2.52257        10.66928        -1.67210
H         -0.03151        10.73073        -1.70540
H         -2.52836        10.68281        -1.78300
H         -4.98106        10.66847        -1.80697
H         -7.12056         9.55604        -1.28436
H         -8.37340         7.53729        -0.64670
H         -9.64894         5.45921        -0.05045
H        -10.89209         3.29556         0.50989
H        -11.95556         1.26072         1.05301
H        -12.21589        -1.05584         1.43826
H        -10.38258        -3.40602         1.79087
H         -9.44843        -5.65585         0.94701
H         -8.04296        -7.64083         1.25348
H         -6.83751        -9.77392         1.06686
H         -4.82371       -11.04455         0.46450
H         -2.45937       -11.09460        -0.21449
H          0.00246       -11.06735        -0.36678
H          2.52978       -11.13796        -1.00014
H          5.01454       -11.00581        -1.12958
H          7.06416        -9.90374        -0.40049
H          8.30496        -7.75703         0.11344
H          9.54543        -5.66655         0.13941
H         10.87685        -3.46669         0.30182
