         324
 CSIRO Nanostructure Databank - Neutral Graphene Oxide Data Set
C         31.05074        56.77271         2.62139
C         31.06866        58.13855         2.96255
C         30.08140        58.72139         3.77144
C         31.35429        60.80050         4.03220
C         30.21688        60.04061         4.25647
C         33.18183        52.72755         0.68569
C         33.22488        54.09334         1.00328
C         32.10305        54.75877         1.62239
C         33.27379        56.95367         1.46400
C         32.11203        56.11150         1.93973
C         33.46717        58.17100         2.40472
C         32.18652        59.02477         2.44615
C         33.62131        60.98484         3.08743
C         32.43375        60.30009         3.23624
C         35.47379        48.54847        -0.65000
C         35.47538        49.94769        -0.45975
C         34.30458        50.64158        -0.06678
C         35.53914        52.76050        -0.03200
C         34.31806        52.03374         0.17773
C         35.58938        54.12667         0.32003
C         34.46204        54.80704         0.80647
C         35.75014        56.87111         1.18802
C         34.56242        56.19000         1.24450
C         35.96696        58.17819         1.92242
C         34.68244        58.97852         1.98408
C         36.09184        61.08683         2.30123
C         34.76667        60.43823         2.33673
C         37.78647        44.29718        -1.90424
C         37.80924        45.76531        -1.55246
C         36.64238        46.44285        -1.20604
C         37.87479        48.57238        -1.20881
C         36.64971        47.85107        -1.01283
C         37.88970        49.99416        -1.06848
C         36.70162        50.67932        -0.67882
C         37.91671        52.81070        -0.80569
C         36.72039        52.08605        -0.51662
C         37.79633        54.31613        -0.87910
C         36.94000        54.80323         0.30100
C         37.98374        57.12098        -0.08923
C         36.81871        56.30867         0.33382
C         38.22334        58.44719         0.55931
C         37.18362        58.99388         1.49190
C         38.43431        61.12083         1.47181
C         37.20226        60.45585         1.75333
C         40.21900        40.12646        -0.60023
C         40.24482        41.49596        -0.97349
C         39.03760        42.21866        -1.17091
C         40.28139        44.25226        -1.63505
C         39.05058        43.57072        -1.50571
C         40.26548        45.70117        -2.10408
C         39.02924        46.46212        -1.67485
C         40.30445        48.62139        -1.69201
C         39.07328        47.87176        -1.52418
C         40.30573        50.03046        -1.63158
C         39.09727        50.72538        -1.29248
C         40.36140        52.88849        -1.34100
C         39.09237        52.14383        -1.14356
C         40.36589        54.38473        -1.33621
C         39.10296        55.07792        -0.96183
C         40.30090        57.22309        -0.99850
C         39.15949        56.40652        -0.64446
C         40.23668        58.65411        -0.83059
C         39.28493        59.32197         0.01626
C         40.72649        61.36366         0.62340
C         39.46578        60.60151         0.65134
C         42.42528        36.05885         1.03965
C         42.50446        37.34382         0.41203
C         41.34983        38.06444         0.09835
C         42.68438        40.05502        -0.52824
C         41.40171        39.41165        -0.35862
C         42.74640        41.43808        -0.96332
C         41.49742        42.16004        -1.16167
C         42.77593        44.21772        -1.74952
C         41.48763        43.53764        -1.48377
C         42.78140        45.69235        -1.54740
C         41.50157        46.44194        -1.64199
C         42.77307        48.58023        -1.75595
C         41.54877        47.91498        -1.77798
C         42.79554        50.02756        -1.87663
C         41.54098        50.76543        -1.86588
C         42.73994        52.94922        -2.12792
C         41.53169        52.16186        -1.87681
C         42.78823        54.43066        -1.98619
C         41.42981        55.16419        -2.11917
C         42.38838        57.51666        -2.14634
C         41.37250        56.65143        -1.72142
C         42.52099        58.86430        -1.75381
C         41.28914        59.42449        -1.38207
C         42.97283        61.78553        -0.63041
C         41.59777        61.36127        -0.43309
C         44.69495        33.60060         2.80508
C         43.56055        34.19004         2.18643
C         44.83985        35.81838         0.69640
C         43.57959        35.33684         1.35804
C         44.98449        37.30203         0.60290
C         43.79446        37.99415         0.26571
C         45.18521        39.93061        -0.38037
C         43.85013        39.33557        -0.21163
C         45.25621        41.40123        -0.79930
C         43.98050        42.08486        -1.08164
C         45.40480        44.22608        -1.47868
C         44.06798        43.47677        -1.55125
C         45.25066        45.73093        -1.29223
C         44.05955        46.42402        -1.57361
C         45.25027        48.53396        -1.49785
C         44.02534        47.84062        -1.61344
C         45.21930        49.99945        -1.35069
C         44.00384        50.71486        -1.77635
C         45.29882        52.89631        -1.59658
C         44.09135        52.15035        -2.01481
C         45.23716        54.28255        -1.54662
C         44.04777        55.01429        -1.93339
C         45.20308        57.23664        -1.61457
C         44.26942        56.43628        -2.17659
C         45.12486        58.74945        -1.49881
C         43.83490        59.54707        -1.51938
C         45.22887        61.64716        -1.48802
C         43.93427        61.04592        -1.31934
C         45.93207        34.18537         3.00749
C         47.28898        36.05895         2.08343
C         46.18856        35.59654         2.76435
C         47.35466        37.40116         1.49334
C         46.21299        37.99728         0.81785
C         47.48692        40.10687         0.54862
C         46.31730        39.34851         0.36492
C         47.52373        41.53138         0.26731
C         46.41444        42.18927        -0.34572
C         47.48360        44.37214        -0.07643
C         46.42831        43.61196        -0.53485
C         47.48805        45.87194        -0.15216
C         46.42140        46.46453        -1.02872
C         47.79468        48.53088        -1.37444
C         46.44865        47.85494        -1.22634
C         47.79442        50.02155        -1.18506
C         46.51572        50.73842        -1.19044
C         47.75844        52.85598        -1.32230
C         46.53428        52.19390        -1.36834
C         47.72472        54.30343        -1.07390
C         46.39550        55.04292        -1.03205
C         47.62848        57.15506        -1.74389
C         46.40063        56.58673        -0.96007
C         47.65916        58.64134        -1.46410
C         46.43867        59.46707        -1.85314
C         47.63072        61.77797        -1.84339
C         46.44764        60.98696        -1.62144
C         48.53954        38.10909         1.56211
C         49.79680        40.21292         1.38028
C         48.63699        39.47595         1.14499
C         49.82057        41.63251         1.18849
C         48.64425        42.28293         0.68225
C         49.88654        44.48686         0.66963
C         48.55094        43.78103         0.79856
C         49.99473        45.79869         0.21827
C         48.84885        46.51303        -0.30040
C         50.17015        48.58525        -0.52102
C         48.93926        47.84621        -0.66309
C         50.22167        49.99034        -0.79313
C         48.99949        50.70919        -1.11221
C         50.24570        52.86613        -1.20240
C         49.01928        52.15961        -1.21974
C         50.20376        54.32679        -1.39180
C         48.97286        55.05867        -1.25717
C         50.12810        57.18914        -1.36189
C         48.91675        56.44674        -1.37501
C         50.11885        58.59293        -1.14764
C         48.80527        59.17727        -0.96493
C         50.21707        61.63805        -1.73445
C         48.90229        61.35615        -1.37704
C         50.95857        42.36768         1.51316
C         52.38948        44.35233         0.96326
C         51.01959        43.86642         1.45690
C         52.42403        45.85486         0.83258
C         51.25175        46.52683         0.30000
C         52.64934        48.58807         0.01371
C         51.31037        47.88495        -0.02152
C         52.54081        50.08849         0.08499
C         51.40398        50.75492        -0.53442
C         52.69555        52.84131        -0.51041
C         51.45001        52.15266        -0.82376
C         53.11749        54.02136        -1.09745
C         51.31062        55.09293        -1.78085
C         52.52172        57.29186        -1.61851
C         51.34257        56.50931        -1.63134
C         52.55598        58.63679        -1.21911
C         51.30529        59.36477        -1.15958
C         52.62071        61.40454        -1.33966
C         51.35580        60.82065        -1.33110
C         53.52143        46.57473         1.23200
C         54.54954        48.76565         1.65780
C         53.58917        48.00107         1.04338
C         54.60381        50.19630         1.48698
C         53.52189        50.81067         0.73389
C         54.72238        53.01585         1.07617
C         53.51373        52.27497         0.59399
C         55.09441        54.26638         0.37961
C         54.14558        54.87212        -0.55693
C         55.07855        57.13418        -0.07003
C         54.35148        56.20492        -0.90025
C         54.92262        58.59923        -0.22819
C         53.81023        59.27415        -0.85767
C         54.97032        61.43599        -0.62079
C         53.81073        60.70755        -0.94018
C         55.64725        50.93791         2.04537
C         56.79188        53.14203         2.40506
C         55.79390        52.34629         1.85062
C         56.88878        54.56529         2.17854
C         56.14461        55.13773         1.02253
C         56.68907        57.41675         1.82732
C         55.95174        56.58557         0.87868
C         56.75541        58.90104         1.46664
C         55.91314        59.41143         0.37515
C         57.13517        61.55038         0.57076
C         56.02799        60.81189         0.08088
C         57.75137        55.39636         2.86875
C         58.76941        57.64389         3.13088
C         57.79104        56.81677         2.61950
C         58.88358        59.03808         2.76363
C         57.94342        59.64074         1.89202
C         59.25158        61.70543         1.86918
C         58.12139        60.97237         1.41772
C         59.99297        59.80619         3.19003
C         60.16099        61.12180         2.74687
O         38.38304        58.32148         2.03348
O         41.06745        60.76900        -1.60949
O         53.46153        53.09083         1.83310
O         43.47870        43.68591        -2.90994
O         52.46120        54.46011        -2.26066
O         56.44681        54.33390        -0.17925
O         44.47252        59.05227        -0.23977
O         46.98105        54.52378         0.20113
O         53.72090        56.70730        -2.04240
O         43.32901        57.01956        -3.04649
O         45.67316        50.37872         0.01714
O         48.77513        60.41448        -0.33648
O         36.80715        57.02198        -0.97659
O         40.84201        53.67436        -0.14538
O         43.51745        52.53453        -3.29919
O         45.60724        35.04642         0.13497
O         41.99050        46.00537        -0.32733
O         34.42872        59.91801         0.92598
O         45.54314        40.31471        -1.75059
O         55.90899        58.39166         2.57679
O         41.05197        55.07803        -3.51282
H         41.73520        55.55087        -4.03561
O         46.42936        59.38758        -3.33793
H         47.16959        59.94203        -3.66783
O         37.70371        44.22621        -3.35074
H         37.76476        43.28318        -3.61014
O         36.25004        57.79493         3.30985
H         37.22482        57.63874         3.35971
O         31.79189        59.46369         1.11746
H         32.56360        59.96799         0.75297
O         48.15170        44.02687         2.22008
H         47.70052        44.91035         2.22111
O         45.23699        36.48702         3.18136
H         44.50676        36.00235         3.61647
O         33.63602        57.68703         3.74990
H         34.58777        57.46552         3.89059
O         40.27234        45.68324        -3.55809
H         39.42165        45.26619        -3.83693
O         50.86496        44.33018         2.83472
H         49.90837        44.19544         3.05376
O         37.08084        54.57987        -2.11100
H         36.85953        55.54415        -2.12083
O         46.50223        57.00014         0.40279
H         46.80766        56.22150         0.92505
O         32.96156        57.38925         0.11973
H         32.19727        58.01766         0.18112
O         47.05499        46.29841         1.21499
H         47.01694        47.28033         1.22776
O         52.66341        43.76919        -0.32283
H         51.94519        44.03042        -0.93618
O         48.09207        48.35455        -2.81557
H         49.01024        48.66676        -2.96699
O         53.27316        48.30398        -1.29334
H         53.46147        47.34116        -1.31914
O         47.42373        56.86566        -3.14956
H         46.94972        57.64292        -3.54121
O         46.02621        44.09130        -2.78806
H         45.29532        44.05603        -3.44848
O         37.63817        54.41159         1.51149
H         37.03598        54.53738         2.27395
H         30.19843        56.16412         2.96638
H         29.21522        58.12045         4.08658
H         31.45070        61.79329         4.49649
H         29.41638        60.45270         4.88778
H         32.25462        52.16265         0.86507
H         31.21845        54.15075         1.87094
H         33.76998        61.93397         3.62588
H         34.54025        47.98525        -0.50198
H         33.37461        50.07484         0.08985
H         36.15656        62.15056         2.57602
H         36.88244        43.79471        -1.45969
H         35.69699        45.88990        -1.10029
H         38.55767        62.14418         1.85814
H         39.24851        39.62769        -0.46066
H         38.07709        41.69097        -1.06490
H         40.98648        61.90728         1.54359
H         41.43954        35.69466         1.37071
H         40.36551        37.59383         0.24068
H         43.28013        62.76451        -0.22737
H         44.57247        32.56012         3.14909
H         42.58549        33.70546         2.36161
H         45.26939        62.74177        -1.36619
H         46.78054        33.54245         3.28675
H         48.09889        35.35274         1.85386
H         47.50510        62.78787        -2.26650
H         49.41238        37.65489         2.05398
H         50.68205        39.71865         1.80694
H         50.43379        62.50848        -2.37262
H         51.83045        41.84183         1.93203
H         53.18992        44.00529         1.66020
H         52.70362        62.48677        -1.52196
H         54.34872        46.06842         1.75311
H         55.29087        48.28499         2.31486
H         54.99219        62.52411        -0.77837
H         56.41538        50.40519         2.62697
H         57.52425        52.68155         3.08655
H         57.22195        62.61355         0.30223
H         58.41898        54.98068         3.63873
H         59.56249        57.21303         3.76086
H         59.39773        62.73900         1.52486
H         60.73199        59.35620         3.86810
H         61.02930        61.70055         3.09214
