         651
 CSIRO Nanostructure Databank - Neutral Graphene Oxide Data Set
C          6.03374        31.67502         1.43050
C          6.01839        33.02564         1.38213
C          8.37064        27.44909         0.32299
C          8.36598        28.88083         0.42622
C          7.27192        29.49183         1.05828
C          8.45427        31.68138         1.01450
C          7.32040        30.88770         1.59498
C          8.55946        33.11794         1.46818
C          7.22277        33.84213         1.41584
C          8.44004        35.98339         1.52408
C          7.20181        35.20328         1.50315
C          8.46740        37.30173         1.88944
C         10.86890        23.09558        -0.19605
C         10.87149        24.55166         0.19019
C          9.57550        25.31582         0.10566
C         10.68619        27.46600        -0.54276
C          9.52691        26.70525         0.00053
C         10.64312        28.97498        -0.65836
C          9.46630        29.68265        -0.05931
C         10.29598        32.03733        -0.49948
C          9.38311        31.10845         0.15415
C         10.61663        33.29531        -0.04773
C          9.65112        33.94196         0.82162
C         10.81088        36.11985         0.68136
C          9.62796        35.30322         1.01261
C         10.94655        37.44731         1.36844
C          9.74214        38.08150         2.13919
C         10.90688        40.33896         1.71285
C          9.73609        39.49966         1.59308
C         10.93934        41.75118         1.30798
C         13.31430        18.85542        -0.37359
C         13.28728        20.26380        -0.51597
C         12.09800        20.98456        -0.43526
C         13.34328        23.14885        -0.40060
C         12.06138        22.42074        -0.36909
C         13.35763        24.55657        -0.32333
C         12.05097        25.26221        -0.43324
C         13.26849        27.49026        -0.32946
C         12.00741        26.73621        -0.62084
C         13.26251        28.97784        -0.50837
C         11.97615        29.66112        -0.83240
C         13.23363        31.79672        -1.24130
C         12.03900        30.93913        -1.26037
C         13.14600        33.28370        -0.89319
C         11.85440        34.02408        -0.50101
C         13.34222        35.97538         0.35118
C         11.98828        35.41806         0.05350
C         13.48617        37.31952         1.01988
C         12.30975        38.01919         1.74781
C         13.54553        40.31213         1.30109
C         12.31636        39.56226         1.72579
C         13.43205        41.82478         1.10401
C         12.09925        42.49419         1.12344
C         13.20311        44.66516         0.54194
C         12.07334        43.91065         0.92875
C         13.24942        46.07642         0.52798
C         15.78027        14.57930         0.02707
C         15.78221        15.98562        -0.09293
C         14.55166        16.72539        -0.19843
C         15.77081        18.87461         0.02391
C         14.51467        18.11802        -0.22046
C         15.80165        20.33405        -0.30650
C         14.56461        20.98480        -0.88971
C         15.78707        23.16218        -0.64655
C         14.56229        22.46574        -0.58789
C         15.79469        24.56841        -0.52212
C         14.57159        25.26146        -0.40175
C         15.83834        27.50334        -0.65286
C         14.57952        26.74359        -0.29752
C         15.71687        28.91649        -1.05774
C         14.53764        29.64253        -0.91515
C         15.68786        31.81108        -1.06029
C         14.51427        31.07645        -1.09498
C         15.69155        33.24522        -0.86059
C         14.45443        33.96235        -0.62169
C         15.74137        36.04750        -0.32859
C         14.51058        35.30500        -0.27726
C         15.75901        37.41283        -0.06104
C         14.79825        38.09909         0.87964
C         15.70748        40.33712         0.11534
C         14.66442        39.60230         0.64079
C         15.65286        41.78286        -0.00240
C         14.51530        42.47851         0.35133
C         15.67328        44.69164        -0.20198
C         14.37317        43.91083         0.04200
C         15.66855        46.13007         0.02956
C         14.43760        46.83219         0.27408
C         15.66074        49.00477         0.15829
C         14.47733        48.25220         0.38362
C         15.74005        50.40281         0.24265
C         18.21825        10.37548         0.86375
C         18.17680        11.69329         0.39976
C         16.98990        12.43519         0.35423
C         18.22808        14.55267         0.11452
C         16.99206        13.85847         0.17258
C         18.26975        15.96366        -0.10116
C         17.02810        16.66984        -0.11139
C         18.33509        18.85237        -0.37736
C         17.06882        18.13333         0.02347
C         18.25774        20.27745        -0.76833
C         17.07980        20.96622        -0.68949
C         18.36803        23.03717        -0.56478
C         17.04902        22.43033        -1.09047
C         18.37544        24.56830        -0.65836
C         17.07673        25.33088        -0.57311
C         18.26527        27.40613        -1.29872
C         17.07809        26.75601        -0.97823
C         18.28010        28.85829        -1.46706
C         16.95765        29.56360        -1.50221
C         18.21175        31.71091        -1.00283
C         16.92764        31.09052        -1.36582
C         18.19300        33.20368        -0.76919
C         16.91412        33.94004        -0.81461
C         18.18898        36.06288        -0.75901
C         16.95894        35.35981        -0.70492
C         18.21338        37.48389        -0.65256
C         16.91969        38.17099        -0.53574
C         18.21615        40.33368        -0.42127
C         16.90709        39.66368        -0.46875
C         18.20105        41.79250        -0.51177
C         16.86910        42.52046        -0.45476
C         18.15400        44.64668        -0.07251
C         16.93948        43.96753        -0.18948
C         18.13003        46.08153        -0.00444
C         16.90878        46.78717        -0.00295
C         18.19554        48.99001        -0.28409
C         16.88845        48.25277        -0.19201
C         18.17318        50.44147        -0.12625
C         16.97096        51.13810         0.07772
C         18.20780        53.30880         0.17004
C         17.02393        52.56737         0.26486
C         18.30478        54.66893         0.56800
C         20.83276         6.31836         2.04910
C         20.70076         7.73280         1.87433
C         19.48115         8.34013         1.47406
C         20.69970        10.39096         0.88827
C         19.45080         9.68326         1.07007
C         20.72781        11.68389         0.33427
C         19.44437        12.31611        -0.18475
C         20.63859        14.50717        -0.51711
C         19.51851        13.81585         0.28687
C         20.80878        15.97842        -0.07556
C         19.49382        16.66353        -0.29626
C         20.75959        18.72213        -1.12876
C         19.43594        17.99589        -0.98295
C         20.65895        20.10259        -1.64260
C         19.47843        20.93459        -1.25868
C         20.71487        23.04695        -1.70120
C         19.51987        22.30142        -1.26073
C         20.79567        24.47886        -1.27867
C         19.53924        25.28048        -1.21531
C         20.76768        27.35926        -1.76670
C         19.50551        26.63876        -1.43177
C         20.77132        28.86900        -1.82523
C         19.45309        29.59170        -1.65555
C         20.47181        31.91039        -1.77692
C         19.42288        31.04336        -1.52713
C         20.59632        33.24098        -1.26612
C         19.45545        33.93364        -0.91424
C         20.64792        36.06216        -0.96877
C         19.45048        35.37784        -0.86797
C         20.66335        37.52574        -1.00223
C         19.39954        38.21479        -0.70557
C         20.69006        40.35270        -0.37334
C         19.41943        39.64307        -0.52741
C         20.66559        41.77644        -0.17508
C         19.45140        42.51414        -0.24990
C         20.65900        44.59207         0.04981
C         19.42493        43.91537        -0.08309
C         20.68232        46.05030         0.25522
C         19.39122        46.82334         0.20432
C         20.67314        48.95071         0.00726
C         19.46977        48.27746        -0.05122
C         20.71935        50.40414        -0.14905
C         19.44747        51.12355        -0.36636
C         20.74529        53.29061        -0.08030
C         19.44777        52.63690        -0.28778
C         20.71802        54.79418        -0.17118
C         19.50952        55.40728         0.50230
C         20.84617        57.45591         0.96283
C         19.60370        56.72807         0.93608
C         20.87970        58.78721         1.32929
C         23.58876         3.79137         2.47428
C         22.30191         4.33951         2.18335
C         23.28150         6.59770         2.49552
C         22.09192         5.72262         2.21370
C         23.03332         8.07604         2.78686
C         21.85977         8.54848         1.98006
C         23.18314        10.42462         1.04193
C         21.92674         9.78965         1.30867
C         23.18204        11.75031         0.56398
C         21.94454        12.36772         0.19996
C         23.23345        14.47351        -0.51825
C         21.94637        13.71252        -0.44075
C         23.22367        15.96290        -0.69403
C         22.02331        16.65197        -0.70337
C         23.23680        18.71971        -1.44585
C         21.97762        18.04821        -1.09586
C         23.23774        20.07353        -1.77758
C         21.98027        20.81024        -1.99457
C         23.32381        23.01489        -1.92380
C         22.00258        22.31848        -2.03342
C         23.35667        24.47271        -1.77254
C         22.09402        25.17114        -1.40318
C         23.22039        27.29225        -1.21783
C         22.06253        26.64957        -1.48755
C         23.14151        28.71405        -0.73277
C         22.07014        29.50130        -1.43382
C         23.30206        31.62489        -0.96575
C         22.37059        30.84675        -1.67105
C         23.04972        33.04736        -0.50513
C         21.96993        33.90337        -1.25049
C         23.20566        36.00495        -0.65516
C         21.87484        35.29029        -0.55266
C         23.25615        37.50297        -0.63106
C         21.97522        38.27419        -0.80869
C         23.15077        40.33258         0.00292
C         21.92250        39.67383        -0.34092
C         23.13112        41.74606         0.14645
C         21.89976        42.46465         0.00640
C         23.13086        44.59988         0.12928
C         21.88143        43.88802         0.05706
C         23.12539        46.04922        -0.00179
C         21.94232        46.76516        -0.00291
C         23.12706        48.90984        -0.12598
C         21.94275        48.21789        -0.01522
C         23.14348        50.32594         0.38608
C         21.90453        51.10578        -0.04285
C         23.19207        53.28536        -0.01954
C         21.92234        52.56313        -0.05125
C         23.23251        54.66066         0.03169
C         22.02535        55.43066         0.21265
C         23.38420        57.36194         0.87603
C         22.08445        56.73968         0.64615
C         23.44837        58.76192         1.37138
C         22.14189        59.51964         1.52605
C         23.39717        61.63073         1.21108
C         22.19306        60.97470         1.37922
C         24.56403         4.53558         3.07086
C         25.51049         6.81904         3.55514
C         24.27625         5.95752         3.48451
C         25.54537         8.01457         2.88844
C         24.34208         8.35911         2.04910
C         25.76324        10.38002         1.13117
C         24.44358         9.63726         1.23393
C         25.69254        11.78875         0.61360
C         24.43730        12.48127         0.38187
C         25.71736        14.42740        -0.64681
C         24.46424        13.79723        -0.05839
C         25.75472        15.95483        -0.51883
C         24.47210        16.64850        -0.95228
C         25.78898        18.54988        -1.91631
C         24.48599        17.98169        -1.32660
C         25.81388        20.08175        -2.06311
C         24.49815        20.81748        -2.04398
C         25.80730        22.98007        -2.22183
C         24.48888        22.29804        -1.90392
C         25.82626        24.51266        -1.95772
C         24.52529        25.18940        -1.70724
C         25.72323        27.36095        -0.88621
C         24.47383        26.49757        -0.90728
C         25.69626        28.69217        -0.57575
C         24.46074        29.48668        -0.87215
C         25.67272        31.60849        -0.24115
C         24.36541        30.86753        -0.20307
C         25.67077        33.09050        -0.52212
C         24.35580        33.82995        -0.33061
C         25.53715        35.91082         0.41331
C         24.36789        35.18518        -0.20846
C         25.57864        37.42650         0.21844
C         24.43043        38.19376        -0.03602
C         25.56285        40.29893         0.68699
C         24.39253        39.60903         0.19876
C         25.55854        41.75545         0.69755
C         24.35573        42.45907         0.37712
C         25.57102        44.70080         0.50083
C         24.32340        43.89448         0.28005
C         25.55384        46.06059        -0.13715
C         24.38389        46.74671        -0.20813
C         25.67403        48.90930        -0.29302
C         24.36816        48.20263        -0.61114
C         25.70652        50.31382        -0.18504
C         24.47046        51.06253         0.17977
C         25.73076        53.25885        -0.28265
C         24.47021        52.54369         0.02827
C         25.77227        54.61130        -0.13333
C         24.51088        55.41922        -0.16402
C         25.87811        57.33435         0.95226
C         24.55070        56.71643         0.57560
C         25.84372        58.82839         0.75968
C         24.68419        59.52708         1.04294
C         24.61665        60.94738         1.04512
C         26.68743         8.86847         2.90998
C         28.02832        10.76603         2.36105
C         26.86728         9.97626         2.08722
C         28.50247        11.75306         1.48945
C         26.85662        12.41822         0.21180
C         28.16741        14.53301         0.11663
C         26.98291        13.80945        -0.09132
C         28.23209        15.90310        -0.36336
C         27.06758        16.46069        -1.17045
C         28.22254        18.69613        -1.23913
C         27.04860        17.97594        -1.29307
C         28.28412        20.11110        -1.50440
C         27.07972        20.84481        -1.77437
C         28.18329        22.97466        -1.13756
C         27.03255        22.23728        -1.70864
C         28.20495        24.50044        -0.97995
C         27.06914        25.27774        -1.57588
C         28.25969        27.44067        -0.80266
C         27.01943        26.82358        -1.43578
C         28.11292        28.78978        -0.21903
C         26.91384        29.45449        -0.28937
C         28.07987        31.66647         0.09579
C         26.85416        30.92073        -0.11226
C         28.09415        33.05600         0.19922
C         26.87427        33.81222         0.03773
C         28.05549        35.87600         0.61067
C         26.85491        35.18186         0.23430
C         27.93993        37.28710         1.03558
C         26.72709        38.08493         0.71774
C         27.93926        39.99870         1.57253
C         26.71456        39.46887         1.00273
C         27.98351        42.11075         1.33396
C         26.77480        42.57085         0.77785
C         28.07041        44.55092         0.14511
C         26.83188        43.91109         0.31043
C         28.11558        45.95087        -0.33546
C         26.83410        46.72106        -0.46968
C         28.13326        48.85550        -0.33977
C         26.87965        48.19360        -0.38464
C         28.14981        50.27735        -0.35700
C         26.93579        50.99975        -0.29958
C         28.24956        53.17048        -0.35825
C         26.95171        52.46635        -0.64123
C         28.25860        54.55705        -0.19807
C         27.04978        55.32266        -0.04322
C         27.07417        56.64310         0.35161
C         29.30503        12.86953         1.73790
C         30.45254        14.84549         1.00299
C         29.30828        14.04107         0.90751
C         30.57318        16.08585         0.33855
C         29.39031        16.64019        -0.27719
C         30.81471        18.64843        -1.00517
C         29.48906        17.94982        -0.97143
C         30.93511        20.11227        -1.42342
C         29.57108        20.81932        -1.56182
C         30.71852        23.01582        -0.73805
C         29.53013        22.34106        -1.27591
C         30.65669        24.43417        -0.45756
C         29.47602        25.17350        -0.71372
C         30.51493        27.22847         0.42782
C         29.50380        26.64830        -0.56135
C         30.58691        28.73511         0.35461
C         29.25989        29.44181         0.52076
C         30.50333        31.56836         0.87978
C         29.37912        30.90871         0.08744
C         30.50469        33.06939         0.71364
C         29.33199        33.77096         0.51840
C         30.49894        35.94784         1.04190
C         29.28370        35.21651         0.70664
C         30.52184        37.31826         1.14472
C         29.25288        38.03497         1.25996
C         30.46810        40.29405         1.41875
C         29.20626        39.49891         1.33856
C         30.49808        41.82399         1.25940
C         29.25752        42.60474         1.01543
C         30.56165        44.57019         0.25868
C         29.29693        43.87775         0.39329
C         30.58304        45.97177         0.01347
C         29.37539        46.70368        -0.18724
C         30.62611        48.82062        -0.25175
C         29.37177        48.10442        -0.28250
C         30.61587        50.24326        -0.31813
C         29.42409        50.98380        -0.36605
C         29.43328        52.40299        -0.33106
C         31.80450        16.76432         0.31045
C         33.14251        18.75521        -0.11427
C         31.95565        18.04721        -0.26176
C         33.20670        20.17945        -0.28647
C         31.97170        20.87869        -0.60792
C         33.10359        22.98626         0.02996
C         31.90236        22.26371        -0.46549
C         33.13054        24.44415        -0.27065
C         31.84484        25.13254        -0.10862
C         33.13805        27.33041         0.21697
C         31.85566        26.53411         0.30840
C         33.08136        28.80633         0.10141
C         31.78873        29.47237         0.29813
C         32.96836        31.68203         0.16309
C         31.77819        30.88138         0.44176
C         33.05199        33.03691         0.78798
C         31.75377        33.73355         1.11046
C         33.07842        35.94969         1.19136
C         31.75822        35.20949         1.29906
C         33.03864        37.40544         1.00854
C         31.78024        38.11638         1.46122
C         32.98812        40.28740         0.90180
C         31.67252        39.53211         0.85136
C         32.97228        41.72159         0.79950
C         31.76531        42.46046         0.80137
C         33.02990        44.54905         0.33336
C         31.77206        43.84748         0.46881
C         33.03555        45.94903         0.12345
C         31.83786        46.68307        -0.00373
C         31.82783        48.09472        -0.15260
C         34.40513        20.84607        -0.03942
C         35.69200        23.08419         0.08829
C         34.43833        22.29303         0.16264
C         35.70631        24.45801        -0.00881
C         34.42556        25.17945        -0.23919
C         35.58581        27.34050        -0.17151
C         34.41005        26.64662        -0.09818
C         35.53254        28.80825        -0.33211
C         34.24267        29.50339        -0.12156
C         35.53414        31.71474         0.06948
C         34.26690        30.98042        -0.17697
C         35.50018        33.12767         0.29759
C         34.28948        33.82741         0.60032
C         35.48545        35.97513         0.54069
C         34.29437        35.21252         0.78936
C         35.45233        37.41126         0.59052
C         34.21620        38.11468         0.78195
C         35.44879        40.28331         0.70165
C         34.18625        39.57831         0.79935
C         35.43778        41.69304         0.63209
C         34.22798        42.42117         0.62400
C         34.23280        43.82172         0.44969
C         36.90183        25.26447         0.00695
C         38.06736        27.45650         0.00596
C         36.87236        26.65501        -0.11222
C         38.06957        28.84518         0.01467
C         36.81697        29.59195        -0.26439
C         37.98299        31.75399         0.20586
C         36.75859        31.04366         0.02985
C         37.96944        33.15907         0.25506
C         36.72233        33.86585         0.27188
C         37.95072        36.03003        -0.07006
C         36.69458        35.28409         0.30054
C         37.90793        37.47232         0.33186
C         36.69986        38.14259         0.51432
C         36.65927        39.56653         0.62086
C         39.24786        29.62434         0.25439
C         40.43623        31.78099         0.52178
C         39.22977        31.01493         0.30827
C         40.42895        33.14405         0.56830
C         39.20969        33.90879         0.38783
C         39.19690        35.28281         0.33547
O         15.45069        27.24115         0.75634
O         23.56493        36.73821        -1.85983
O         30.37427        17.83693        -2.14184
O         36.21535        29.25295        -1.56468
O         16.86709        30.44551        -2.66814
O         29.38840        27.42846        -1.79704
O         30.66414        41.14714         2.56171
O         17.46114        42.17955        -1.74742
O         13.93889        41.25899         2.35433
O         28.43858        37.47463         2.39336
O         16.60694        38.99533        -1.74726
O         29.65059        21.81229        -2.64097
O         13.17174        28.37083         0.83578
O         21.53379        31.50552        -2.58382
O         19.37439        51.95557        -1.58435
O         25.16098        20.43914        -3.32076
O         26.92547        52.45506        -2.19747
O         19.37291        12.20983        -1.55930
O         11.69997        35.19275        -1.36357
O         15.65821        19.89400         1.07476
O         24.35190        55.83902        -1.66821
O         22.67458        13.76730        -1.70332
O         11.98225        25.83936        -1.78064
O         32.64731        26.80936         1.53557
O         10.32507        28.11306        -1.80984
O         21.40279        38.12240        -2.13857
O         28.02224        11.65300         0.17159
O         21.14446        22.85892        -3.08769
O         17.46091        48.57669        -1.51332
O         27.84127        23.59236         0.14594
O         20.79653        28.05279        -3.06277
O         22.92516        58.99980         2.70462
O         24.71207        51.90645         1.37447
O         18.24146        32.21592         0.36069
O         24.06465         7.06396         1.29157
O         20.01391        46.46424         1.50866
O         17.93463        25.14624         0.62400
O         33.44499        31.60183        -1.22462
O         33.80963        24.77627        -1.54833
O         21.60416        24.70311        -0.06488
O         13.68528        36.07015         1.78318
O         32.46965        35.59068         2.51645
O         14.77412        44.26540        -1.30618
O         10.87780        31.58508        -1.68389
O         11.74086        40.08231         2.91004
O         10.62143        37.40767        -0.03675
O         13.18644        32.82178        -2.28389
O         21.12451        20.23095        -3.02237
O         18.06071        18.58244         1.02355
O         33.57669        22.66352         1.36149
O         32.51374        33.01686         2.15491
O         27.48300        46.14812        -1.66833
O         26.76756        25.02476        -2.97842
O         25.33072         9.44660         0.08677
O         27.84464        41.15904         2.33702
O         22.51069        32.82102         0.84006
H         23.13717        32.20790         1.31599
O         11.20134        24.57469         1.63466
H         10.56375        23.99091         2.09756
O         27.24815        15.93534        -2.49273
H         26.64560        16.41968        -3.10613
O         31.34739        39.36621        -0.56123
H         32.14520        39.03258        -1.02382
O         25.77988        18.01588        -3.27805
H         25.36131        18.70899        -3.84814
O         18.49821        22.68844         0.82740
H         18.20081        23.46755         1.35545
O         21.63458        35.22218         0.88106
H         21.95771        34.35610         1.23933
O         21.08835        16.00863         1.37332
H         20.84618        16.90020         1.70476
O         25.66787        51.85680        -2.58989
H         25.94799        51.01413        -3.02400
O          9.93866        38.05982         3.55287
H         10.74569        38.58635         3.76526
O         20.20825        14.59738        -1.87812
H         19.94335        13.66547        -2.14900
O         12.50162        37.69683         3.14310
H         13.41361        37.96256         3.39242
O         25.85702        33.14978        -1.98994
H         25.69651        34.07384        -2.28059
O         25.86344        22.84392        -3.66895
H         26.50441        23.51178        -4.00539
O         37.98890        36.03808        -1.56328
H         37.99248        35.10068        -1.85495
O         17.06169        22.52003        -2.53549
H         16.31973        21.95628        -2.86305
O         30.32961        31.35155         2.29926
H         31.06106        31.83402         2.75081
O         31.85917        38.26200         2.89531
H         31.98280        37.35610         3.26737
O         25.26058        35.79334         1.85770
H         26.03086        36.15952         2.34529
O         22.94498         8.51926         4.15219
H         22.00269         8.67306         4.37102
O         24.34484        26.04343         0.48417
H         23.99915        26.80256         1.00769
O         24.28176        48.24282        -2.08190
H         24.97654        47.64448        -2.43320
O         29.99718        26.88450         1.75326
H         30.77748        26.86929         2.35575
O         26.98684        27.38375        -2.78078
H         27.88352        27.25193        -3.16603
O         31.53706        20.08628        -2.74295
H         31.20364        20.87577        -3.22928
O          8.93490        33.04842         2.88555
H          8.31238        32.40742         3.31305
O         14.71515        20.86045        -2.34626
H         13.88617        21.18117        -2.76183
O         20.53808        55.08835        -1.60033
H         21.29146        54.68967        -2.08585
O          7.51365        30.74728         3.06654
H          8.23650        30.09734         3.20299
O         24.63053        29.77526        -2.29028
H         25.12984        29.04183        -2.71311
O         25.88454        16.27818         0.89436
H         25.07624        15.96848         1.35532
O         22.41263        34.13642        -2.59007
H         22.35345        33.28420        -3.07959
O         22.82591        28.53335         0.70389
H         21.95198        28.08993         0.76810
O         28.87543        29.37326         1.91692
H         29.04501        28.44592         2.21289
O         29.81426        30.92583        -1.29711
H         29.14501        30.45709        -1.84022
O         25.48710        56.64259        -2.03249
H         26.07379        56.00139        -2.50407
O         19.82488        13.71945         1.69322
H         20.15219        14.60637         1.98676
O         22.97525        50.15437         1.83102
H         23.45463        50.90537         2.25831
O         24.06880        30.76320         1.22586
H         23.45462        29.99903         1.36399
O         25.59764        14.11819        -2.05491
H         25.40902        13.16164        -2.15404
O         26.03037        57.13313         2.41077
H         25.28338        57.59393         2.85214
O         18.99665        17.73428        -2.35715
H         19.58391        17.04328        -2.73597
O         23.66923         5.91759         4.80364
H         23.48070         6.85324         5.05166
O         25.59334        45.01109         1.95291
H         25.52636        44.16046         2.43833
O         15.43088        38.01597         2.20328
H         15.36756        37.07047         2.47560
H          5.08944        31.11126         1.39657
H          5.05387        33.55316         1.30705
H          7.48098        26.90919         0.68187
H          6.43943        28.85481         1.39572
H          6.24332        35.74109         1.57432
H          7.53317        37.77733         2.22643
H          9.92512        22.52919        -0.15856
H          8.66946        24.79258         0.45445
H          9.01175        39.76019         0.80614
H          9.96954        42.24967         1.16349
H         12.35690        18.31217        -0.34135
H         11.15616        20.43803        -0.27080
H         11.13172        44.44078         1.13656
H         12.34246        46.62776         0.81903
H         14.82286        14.03869         0.04862
H         13.61272        16.16079        -0.29862
H         13.54785        48.78873         0.62733
H         14.82628        50.97279         0.46911
H         17.29182         9.90625         1.23483
H         16.02011        11.92333         0.46403
H         16.09945        53.08425         0.56459
H         17.40688        55.16402         0.97075
H         19.94534         5.68224         1.91163
H         18.55461         7.74797         1.48224
H         18.70633        57.22859         1.33240
H         19.93529        59.32636         1.50190
H         23.76933         2.72975         2.24921
H         21.47735         3.66730         1.90442
H         23.39989        62.72811         1.14107
H         21.24883        61.53816         1.36213
H         25.54614         4.09629         3.29928
H         26.35890         6.49345         4.17604
H         26.77638        59.37211         0.54418
H         25.53565        61.52099         0.85867
H         27.51038         8.58821         3.58584
H         28.53353        10.61227         3.32690
H         29.22136        55.06807        -0.04194
H         28.04745        57.14590         0.46804
H         29.96111        12.87363         2.62204
H         31.31812        14.46621         1.56691
H         31.57698        50.77914        -0.29931
H         30.39857        52.92139        -0.22435
H         32.67085        16.30760         0.81306
H         34.01250        18.24765         0.33028
H         33.99987        46.47565         0.06732
H         32.78543        48.63662        -0.15954
H         35.33120        20.26342         0.07768
H         36.64362        22.53225         0.13751
H         36.38998        42.23355         0.52406
H         35.19418        44.34987         0.36709
H         37.87101        24.75884         0.13643
H         39.02082        26.92856         0.16394
H         38.84342        38.05081         0.29257
H         37.60396        40.12732         0.55606
H         40.20405        29.09698         0.39457
H         41.38348        31.23385         0.63862
H         41.36919        33.69479         0.71843
H         40.14178        35.84179         0.41874
