         276
 CSIRO Nanostructure Databank - Neutral Graphene Oxide Data Set
C        -11.10289         0.69779         0.85709
C        -10.08523         1.45370         0.03434
C         -8.70487         0.80620         0.10342
C         -7.64987         1.44159        -0.80255
C         -6.25840         0.81295        -0.64057
C         -5.16529         1.49001        -1.45827
C         -3.85222         0.68470        -1.48534
C         -2.63268         1.41157        -1.98027
C         -1.28415         0.75473        -1.73577
C         -0.05524         1.54594        -1.46171
C          1.13147         0.92483        -0.76048
C          2.46353         1.43904        -1.39489
C          3.64365         0.75877        -0.69770
C          4.90284         1.49002        -0.37825
C          6.14473         0.77015        -0.92537
C          7.49667         1.44305        -0.63800
C          8.79088         0.71115        -0.46444
C         10.11659         1.43961        -0.20693
C         10.93165         0.80869         0.90245
C         -9.85551         2.86836         0.52912
C         -8.68285         3.52633         0.31359
C         -7.58826         2.98638        -0.59681
C         -6.18858         3.52830        -0.38400
C         -5.09246         2.93894        -0.93727
C         -3.87196         3.73278        -1.40196
C         -2.58660         2.99310        -0.93945
C         -1.26172         3.71413        -1.21993
C         -0.09969         3.02276        -1.28115
C          1.21321         3.72750        -1.29562
C          2.49927         2.97347        -1.39190
C          3.82003         3.71461        -1.14892
C          4.85177         3.03414        -0.25748
C          6.23609         3.68308        -0.22405
C          7.49717         2.88320        -0.25121
C          8.79633         3.60772        -0.39502
C          9.96821         2.95988        -0.21791
C         -8.55562         4.90919         0.72108
C         -7.47527         5.66284         0.36357
C         -6.40202         5.02455        -0.50028
C         -5.11883         5.83643        -0.50345
C         -3.83875         5.18001        -0.90285
C         -2.50642         5.85954        -0.59972
C         -1.19464         5.16540        -0.90718
C          0.03411         5.74291        -0.37145
C          1.33945         4.99493        -0.46320
C          2.50155         5.97280        -0.99498
C          3.86538         5.22403        -1.12343
C          5.22872         6.02106        -0.96624
C          6.45246         5.14260        -0.60878
C          7.58105         5.79095         0.15525
C          8.57008         5.06532        -0.73048
C         -7.45513         7.09875         0.58185
C         -6.28849         7.81358         0.56108
C         -5.02884         6.97207         0.52499
C         -3.74086         7.83874         0.32049
C         -2.53105         6.83983         0.57560
C         -1.18469         7.58176         0.95216
C         -0.00360         7.19941        -0.02535
C          1.31089         7.71378         0.56675
C          2.57482         7.16384        -0.01646
C          3.82167         7.97355         0.14540
C          5.13624         7.30634        -0.10228
C          6.19239         7.63492         0.96593
C          7.54801         7.03509         0.66412
C         -6.16828         9.23118         0.84760
C         -4.98924         9.81467         1.16473
C         -3.71577         9.00835         1.32700
C         -2.45321         9.78286         1.08555
C         -1.23576         9.11143         0.97762
C         -0.01164         9.80326         0.98258
C          1.25921         9.06445         1.29515
C          2.56982         9.81375         1.26530
C          3.75193         9.19385         1.01000
C          5.04427         9.81630         1.30461
C          6.19876         9.11916         1.25077
C        -10.97201        -0.60053         1.20729
C         -9.76345        -1.37042         0.95608
C         -8.55001        -0.58585         0.62759
C         -7.26576        -1.33508         0.44676
C         -6.10789        -0.59961        -0.17598
C         -5.05281        -1.40833        -0.87901
C         -3.83060        -0.67252        -1.31067
C         -2.60154        -1.48140        -1.61106
C         -1.29455        -0.75041        -1.63482
C          0.01286        -1.48950        -1.33428
C          1.09582        -0.61942        -0.67226
C          2.36710        -1.39362        -0.52077
C          3.65099        -0.73604        -0.91252
C          4.92085        -1.51867        -0.82982
C          6.15376        -0.70790        -0.53892
C          7.42545        -1.41839        -0.23955
C          8.81255        -0.79629        -0.28514
C          9.50266        -1.25236         1.03140
C         10.77063        -0.46536         1.29816
C         -9.73973        -2.74353         1.00593
C         -8.55995        -3.53958         0.75550
C         -7.26742        -2.82320         0.56508
C         -6.07750        -3.60141         0.07157
C         -5.09349        -2.90870        -0.84057
C         -3.88976        -3.72102        -1.25740
C         -2.52355        -3.03056        -1.48326
C         -1.44481        -3.54346        -0.53375
C         -0.13627        -2.77045        -0.49434
C          1.14337        -3.49214        -0.18759
C          2.34752        -2.88174        -0.34625
C          3.63152        -3.37678         0.33548
C          4.88298        -2.92241        -0.37556
C          6.12327        -3.66769        -0.23543
C          7.46154        -2.91642        -0.24799
C          8.64069        -3.53346         0.40515
C          9.60923        -2.77494         0.97774
C         -8.59697        -4.91795         0.75156
C         -7.44178        -5.74580         0.50942
C         -6.15205        -5.08893         0.12342
C         -5.24054        -5.94711        -0.74388
C         -3.90435        -5.21708        -1.08830
C         -2.52161        -5.90681        -0.93433
C         -1.40261        -5.00672        -0.41614
C         -0.09430        -5.65625        -0.22821
C          0.98330        -4.84975         0.47271
C          2.30385        -5.60711         0.71660
C          3.61956        -4.86755         0.66855
C          4.90503        -5.62589         0.67197
C          6.10652        -5.02834         0.35968
C          7.37479        -5.73685         0.49201
C          8.70915        -5.03898         0.23431
C         -7.46850        -7.11929         0.59041
C         -6.23775        -7.88687         0.46886
C         -5.11912        -7.29964        -0.07860
C         -3.81050        -7.87393         0.23893
C         -2.57075        -7.09657         0.02868
C         -1.27575        -7.87391         0.30229
C         -0.01605        -7.14265        -0.10585
C          1.21321        -7.82413         0.37702
C          2.32915        -7.09993         0.68330
C          3.56158        -7.77221         1.17715
C          4.85526        -6.99748         1.22842
C          6.16900        -7.77896         1.21835
C          7.38394        -7.06766         0.79282
C         -6.12668        -9.23968         1.00343
C         -4.95204        -9.92962         1.01435
C         -3.70944        -9.32090         0.55801
C         -2.54552        -9.99705         0.33531
C         -1.32051        -9.30084        -0.25411
C          0.00793        -9.96591         0.07811
C          1.15804        -9.28938         0.35181
C          2.45316       -10.06803         0.50491
C          3.61594        -9.27941         1.08854
C          4.94666        -9.92612         0.97733
C          6.10654        -9.24741         1.05501
O          4.65857         8.36449        -0.99270
O          1.87202         3.58421        -2.58502
O         -4.11024        -4.60250        -2.40120
O          2.11692         6.78896         1.34275
O          7.01037        -3.57561        -1.44722
O          3.33225        -8.62264         2.35164
O          8.35927         1.15956        -1.79621
O         -5.44333        -4.34901         1.16036
O         -4.58206         6.07546        -1.83579
O          4.24914        -1.25280        -2.12474
O          5.60664        -7.21281         2.45290
O          0.21985        -6.52992        -1.40710
O         -7.02512         4.97988        -1.86268
O         -5.70404        -2.19703        -1.95937
O          7.46395         5.04711        -1.73926
O         -5.71020         0.51664         0.67161
O          6.88168         3.25327         1.03060
O         -0.32694         1.10890        -2.82490
O          6.58345        -0.89655         0.83751
O         -1.86764         6.16647        -1.84398
O         -2.64006         2.56327         0.28857
O          4.06746         0.95128         0.68748
O         -5.01364         6.40457         1.80380
O          4.12714         4.44724        -2.34626
O         -7.83341         3.69310        -1.89905
O         -1.95661        -1.15419        -2.88679
O          1.59775        -0.92840         0.65581
O         -8.32744         0.60388         1.48156
O         -3.25472        -6.87018         1.28437
O          2.92719        -5.10166         1.95253
O         -6.88711        -1.98431         1.70598
O         -1.09717        -2.68399         0.59759
O        -10.60738         1.48603        -1.31269
H         -9.85059         1.62531        -1.93221
O          4.30008         3.34203         1.04457
H          4.87857         2.92686         1.72170
O          5.93097         0.88533        -2.34379
H          6.78082         0.69305        -2.80167
O         -5.56913         1.59304        -2.84571
H         -4.93909         2.22940        -3.27421
O         -2.87084         5.99779         1.65813
H         -2.66964         6.46870         2.50115
O          2.53988         0.98316        -2.74679
H          2.07509         1.63752        -3.31506
O          0.58195        -1.88110        -2.59749
H         -0.16074        -1.99975        -3.23404
O          0.39716        -4.62136         1.77374
H          1.12051        -4.36553         2.38869
O          5.52931         6.47068        -2.29220
H          4.95706         7.24620        -2.48764
O         -1.11317        -8.02477         1.72868
H         -1.88877        -7.58693         2.16117
O         -8.07568         1.14732        -2.14761
H         -7.36969         1.47572        -2.76254
O         -2.01482        -3.52851        -2.74465
H         -2.63567        -3.25328        -3.45408
O         -0.21100         7.98927        -1.22334
H          0.32907         7.59092        -1.94510
O          3.66933        -2.65485         1.60066
H          3.25065        -3.23275         2.28069
O         -1.46097        -9.27404        -1.69518
H         -1.49231        -8.33821        -2.00884
O         -2.75263         1.75863        -3.31076
H         -1.83883         1.83947        -3.67924
O          1.16787         8.74220         2.74261
H          1.85903         8.05731         2.90566
O          9.53385        -1.35716        -1.39260
H         10.28681        -0.75155        -1.59248
O         -3.67755         8.40828        -0.96348
H         -3.80872         7.70138        -1.64499
O          5.67262         6.96082         2.15545
H          6.34392         7.03040         2.86593
O         -3.94999         3.79916        -2.83871
H         -4.42228         4.64028        -3.05414
O         -5.95257        -6.20625        -1.97508
H         -5.64102        -5.55149        -2.64412
O          8.64952        -0.89748         2.14690
H          9.04011        -1.26935         2.96397
O         -3.67559         8.47885         2.67350
H         -4.34838         7.73629         2.69741
O          2.11047         6.47119        -2.27802
H          2.28552         5.74865        -2.92690
O         -0.85594         7.12141         2.26160
H         -0.25170         7.77998         2.69729
O         10.91483         1.15097        -1.40377
H         10.37684         1.45440        -2.17088
O          1.70462         4.40308         0.80194
H          1.57137         5.05264         1.52824
O         -2.18345        -6.46313        -2.22470
H         -2.06367        -5.69983        -2.83719
O          9.72596        -5.61378         1.05078
H          9.42208        -5.60118         1.98135
O          2.87607       -10.51866        -0.79202
H          2.10016       -10.88899        -1.26151
O          1.05490         1.46744         0.56127
H          1.58511         0.89323         1.16321
H         11.47570        -0.88829         2.03340
H         11.81703         1.37114         1.23807
H         10.91339         3.52298        -0.29134
H          9.47809         5.61052        -1.07520
H          8.46600         7.58033         0.93326
H          7.15510         9.60840         1.49110
H          5.04813        10.87683         1.59941
H          2.58132        10.78025         1.79455
H         -0.01722        10.90231         1.04548
H         -2.47284        10.88298         1.03780
H         -4.95693        10.89012         1.39756
H         -7.08985         9.83381         0.81956
H         -8.41304         7.60242         0.78734
H         -9.37948         5.35972         1.29473
H        -10.65885         3.37758         1.08501
H        -12.04746         1.22114         1.07108
H        -11.80679        -1.11742         1.70590
H        -10.67375        -3.28219         1.22875
H         -9.55527        -5.42414         0.94580
H         -8.39271        -7.63580         0.89023
H         -7.04275        -9.71940         1.37873
H         -4.92425       -10.96955         1.37136
H         -2.49995       -11.08040         0.52997
H          0.04366       -11.06774         0.03062
H          2.26529       -10.96952         1.16034
H          4.96179       -11.00806         0.77890
H          7.06109        -9.77834         0.91698
H          8.33621        -7.62010         0.76861
H          9.00429        -5.22735        -0.83447
H         10.48111        -3.27320         1.43235
