         429
 CSIRO Nanostructure Databank - Neutral Graphene Oxide Data Set
C          1.30635         3.86596        -1.57978
C          0.13950         4.58569        -1.78822
C          1.34508         6.64302        -2.41411
C          0.14321         5.93612        -2.18430
C          1.37518         8.03824        -2.63678
C          0.17913         8.84426        -2.79083
C          1.24620        10.81366        -1.70793
C          0.12055        10.17073        -2.48873
C          1.22556        12.33756        -1.56868
C          0.08346        13.01382        -1.26142
C          1.24695        15.12224        -0.67685
C          0.08256        14.40446        -0.88501
C          1.25917        16.50784        -0.19479
C          0.07615        17.16863         0.19435
C          1.28992        19.25362         0.58159
C          0.09474        18.50081         0.57715
C          1.29128        20.65442         1.01442
C          0.08626        21.33483         1.28774
C          1.29794        23.35309         1.91144
C          0.08841        22.66163         1.68762
C          1.31929        24.78962         2.18713
C          0.13817        25.51425         2.31999
C          1.27713        27.66224         2.07603
C          0.11617        26.92852         2.19689
C          1.28274        29.06703         1.71195
C          0.07225        29.78430         1.53673
C          1.21452        31.81172         0.82756
C          0.04113        31.12150         1.12331
C          1.24713        33.17408         0.33097
C          0.11893        33.74679        -0.30788
C          1.32268        35.83065        -0.65845
C          0.17111        35.02782        -0.82967
C          1.40413        37.14876        -1.23608
C          3.76891         3.77788        -1.62269
C          2.58948         4.45370        -1.83007
C          3.93717         6.56955        -2.25471
C          2.60725         5.85211        -2.34480
C          3.93185         8.05973        -2.25593
C          2.64803         8.78630        -2.55705
C          3.82184        10.96616        -1.81986
C          2.57305        10.25818        -2.21111
C          3.70542        12.29692        -1.10875
C          2.52471        13.12752        -1.63648
C          3.72023        15.11678        -0.77320
C          2.51330        14.46716        -0.91962
C          3.72849        16.58363        -0.59277
C          2.47293        17.23739        -0.15247
C          3.76968        19.36146         0.18801
C          2.49122        18.60045         0.20976
C          3.78351        20.75008         0.77260
C          2.50875        21.35007         1.22247
C          3.80254        23.31649         2.17215
C          2.51640        22.66623         1.71398
C          3.78905        24.82018         2.03722
C          2.57785        25.49323         2.14748
C          3.81694        27.67798         1.95612
C          2.57356        26.97927         2.43243
C          3.78763        29.07143         1.67361
C          2.51652        29.71846         1.47314
C          3.76380        31.89453         1.03706
C          2.48754        31.08813         0.95610
C          3.61162        33.37371         1.15720
C          2.41921        33.96492         0.48765
C          3.55811        36.20243         0.37220
C          2.42230        35.30731         0.07450
C          3.68670        37.44281        -0.40813
C          2.54766        37.89503        -1.15937
C          6.28228         3.67464        -1.32385
C          5.12430         4.36456        -1.98080
C          6.14802         6.51104        -1.08736
C          5.11943         5.85785        -1.71317
C          6.06068         7.97067        -0.80212
C          4.80249         8.73243        -1.21170
C          6.20337        10.85204        -1.19017
C          5.04247        10.19071        -1.49549
C          6.25744        12.32232        -1.54021
C          5.00094        13.07132        -1.18340
C          6.27265        15.13882        -0.83431
C          4.99924        14.42549        -0.97230
C          6.30096        16.48663        -0.42522
C          5.05663        17.28157        -0.40303
C          6.22283        19.22885         0.62156
C          5.05811        18.63386         0.19084
C          6.27411        20.61140         1.07200
C          5.06631        21.33601         1.22116
C          6.28052        23.38603         1.74995
C          5.06819        22.67234         1.66516
C          6.27225        24.81971         1.90970
C          5.03927        25.52469         1.99487
C          6.26978        27.67391         1.83328
C          5.03397        26.96438         1.93587
C          6.25705        29.10495         1.78219
C          5.01422        29.80175         1.61916
C          6.14417        31.99877         1.71305
C          5.00687        31.24840         1.50975
C          6.16993        33.52546         1.87159
C          4.83387        34.18920         1.47408
C          6.08658        36.31284         0.73163
C          4.82868        35.63539         1.04954
C          6.05636        37.59651         0.21688
C          4.86764        38.16136        -0.33592
C          8.60859         3.62627        -0.61180
C          7.38819         4.34595        -0.87877
C          8.52405         6.47118        -0.32942
C          7.39176         5.81139        -0.73440
C          8.57253         7.96341        -0.05954
C          7.31501         8.72792        -0.45362
C          8.64829        10.82936        -0.88053
C          7.41380        10.16718        -0.80614
C          8.69844        12.24802        -1.04333
C          7.51135        13.01613        -1.08683
C          8.77976        15.20858        -0.99358
C          7.49989        14.41049        -0.92264
C          8.74829        16.47194        -0.17489
C          7.52128        17.10585         0.00208
C          8.76811        19.11444         0.98754
C          7.45870        18.41259         0.69381
C          8.76415        20.57456         1.20295
C          7.52330        21.26255         1.34249
C          8.73796        23.39470         1.72758
C          7.52468        22.68653         1.60318
C          8.74510        24.81440         1.80700
C          7.51010        25.53112         1.85810
C          8.73432        27.68649         1.77410
C          7.50737        26.96742         1.84524
C          8.72651        29.12458         1.78227
C          7.48190        29.81847         1.84553
C          8.67984        32.07690         1.65625
C          7.41883        31.29450         1.93947
C          8.57217        33.46021         1.09740
C          7.37936        34.16732         1.21164
C          8.54248        36.19751         0.23991
C          7.41660        35.68077         1.11485
C          8.49313        37.52519        -0.24147
C          7.33873        38.39551         0.19047
C         11.01431         3.57963        -0.16994
C          9.77833         4.27272        -0.28726
C         11.07138         6.45471        -0.14962
C          9.76352         5.71918         0.13582
C         11.03104         7.90503        -0.19558
C          9.87366         8.60326        -0.47445
C         11.19424        10.76177        -0.64721
C          9.92719        10.01626        -1.01354
C         11.28140        12.18289        -0.97231
C          9.98763        12.97117        -1.13830
C         11.23271        15.03112        -0.50376
C         10.03597        14.39842        -0.81188
C         11.23384        16.43280        -0.12086
C         10.00246        17.11937         0.11936
C         11.24240        19.16800         0.70402
C         10.02264        18.45376         0.59628
C         11.23388        20.56341         1.14151
C         10.00700        21.23500         1.33779
C         11.27197        23.38384         1.66101
C         10.01233        22.61961         1.95018
C         11.23250        24.83377         1.59540
C          9.98895        25.53898         1.72971
C         11.18535        27.69126         1.48188
C          9.97183        26.96712         1.68427
C         11.16850        29.12430         1.40040
C          9.96761        29.83002         1.63341
C         11.14231        31.98613         0.93231
C          9.96622        31.30771         1.55043
C         10.85931        33.17613         0.03914
C          9.70588        34.04714         0.45497
C         10.76203        35.94651        -0.80615
C          9.66897        35.38580        -0.03588
C         10.67187        37.27205        -1.32743
C          9.51367        38.04432        -1.03443
C         13.43553         3.55584         0.15919
C         12.21927         4.26864        -0.05683
C         13.60026         6.29101        -0.34540
C         12.26606         5.72186        -0.22560
C         13.92610         7.51337        -1.12689
C         12.21336         8.71022         0.22475
C         13.64324        10.72334        -0.41543
C         12.35439        10.08988        -0.30792
C         13.70454        12.13369        -0.45367
C         12.49880        12.90348        -0.57868
C         13.72456        14.99726        -0.21345
C         12.48711        14.29643        -0.45345
C         13.72112        16.39034        -0.01349
C         12.46315        17.11266         0.08029
C         13.71698        19.29098         0.36399
C         12.44906        18.48922         0.41938
C         13.67411        20.47402         1.30442
C         12.48180        21.22595         1.44866
C         13.70980        23.46153         1.57031
C         12.47556        22.68101         1.65255
C         13.68170        24.83238         0.96299
C         12.41291        25.56170         1.34632
C         13.63777        27.68858         1.08106
C         12.40656        26.97853         1.29315
C         13.60392        29.10082         0.87017
C         12.38386        29.80205         0.99231
C         13.48083        31.83104         0.15068
C         12.35449        31.18627         0.63924
C         13.41348        33.27954        -0.15905
C         12.11015        33.97778        -0.21350
C         13.03447        35.74456        -1.74891
C         11.96905        35.22379        -1.00454
C         12.94562        37.07828        -2.24931
C         11.77327        37.81439        -2.03927
C         15.80320         3.40351         0.74354
C         14.60364         4.21166         0.52287
C         15.76908         6.48619         0.78957
C         14.65010         5.66916         0.36971
C         15.97014         7.85835         0.33757
C         14.99937         8.44411        -0.62541
C         16.13098        10.69019        -0.25824
C         14.91518         9.97485        -0.82374
C         16.17301        12.07429        -0.17512
C         14.95227        12.84235        -0.32210
C         16.19636        14.93324         0.08041
C         14.95807        14.24427        -0.17380
C         16.19473        16.34612         0.26259
C         14.96462        17.08475         0.22890
C         16.19496        19.12187         0.82224
C         14.97472        18.46625         0.50466
C         16.17206        20.47182         1.36245
C         14.91665        20.89978         1.81534
C         16.21493        23.54236         1.71423
C         14.90981        22.99762         2.02906
C         16.21004        24.96260         1.46276
C         14.94754        25.62186         1.25229
C         16.15115        27.83058         1.23845
C         14.88988        27.00708         1.12225
C         16.06752        29.14998         0.51227
C         14.81150        29.78805         0.46031
C         15.90455        31.80774        -0.41786
C         14.73404        31.14482         0.02233
C         15.84331        33.24176        -0.76346
C         14.48915        33.77517        -1.06216
C         15.50962        35.58059        -2.59658
C         14.27958        34.94112        -1.97298
C         15.29424        37.00610        -3.03597
C         14.09868        37.66671        -2.89355
C         18.16677         3.41596         1.76347
C         16.78792         3.81106         1.60132
C         18.02016         6.55303         1.84972
C         16.71637         6.00599         1.69819
C         18.13028         8.04144         1.63896
C         17.12046         8.53726         0.62450
C         18.61691        10.58998         0.33627
C         17.32615         9.89048         0.05390
C         18.61436        12.06509         0.34672
C         17.41488        12.77351         0.12322
C         18.64981        14.88790         0.44960
C         17.41369        14.19916         0.21282
C         18.65676        16.29977         0.59172
C         17.42023        17.02860         0.53898
C         18.63909        19.08979         1.37194
C         17.40762        18.41510         0.81636
C         18.61055        20.60429         1.26123
C         17.38121        21.27369         1.47581
C         18.66727        23.43436         1.58369
C         17.36136        22.72785         1.60056
C         18.69412        24.97366         1.53136
C         17.42353        25.68410         1.31942
C         18.54868        27.73364         0.47907
C         17.40404        27.05065         0.93487
C         18.49402        29.09455         0.06798
C         17.24963        29.80756         0.07732
C         18.26916        31.80244        -1.06861
C         17.16515        31.16325        -0.41914
C         18.13317        33.04620        -1.74106
C         17.03679        33.95070        -1.34168
C         17.48843        35.39489        -3.35964
C         16.90656        35.36011        -1.93576
C         17.52521        36.79010        -3.93648
C         16.41320        37.58038        -3.72504
C         19.14757         4.29601         2.14818
C         20.41136         6.40319         2.26591
C         19.12510         5.75154         2.17404
C         20.60668         7.71797         1.91867
C         19.54310         8.55281         1.44741
C         20.95460        10.59222         1.12993
C         19.72559         9.86733         1.02063
C         21.01159        11.94384         0.89344
C         19.84387        12.73115         0.59070
C         21.09880        14.88807         0.65811
C         19.87649        14.15711         0.56377
C         21.11120        16.25923         0.69377
C         19.89596        17.01013         0.72883
C         21.06153        19.19266         0.69991
C         19.89925        18.42036         0.88591
C         21.04216        20.56803         0.79236
C         19.84630        21.30782         1.07907
C         21.07776        23.46373         0.89627
C         19.88382        22.71885         1.16611
C         21.13520        24.82485         0.86784
C         19.96680        25.67042         1.13278
C         20.92695        27.59381        -0.35025
C         19.87391        27.06413         0.54510
C         20.83846        28.84577        -0.82771
C         19.71461        29.73334        -0.44622
C         20.47702        31.54545        -2.20034
C         19.57759        31.13360        -1.12366
C         20.13855        32.55961        -3.04780
C         18.98437        33.39166        -2.82066
C         19.65612        35.02965        -4.53362
C         18.71615        34.56431        -3.62393
C         19.58299        36.31388        -5.13663
C         18.58747        37.19877        -4.79607
O         14.07014        33.57436        -2.46099
O          3.85619        36.41580         1.79392
O          6.31550         8.38417         0.59471
O         20.29891        26.85365         1.94296
O         13.00034        34.14769         0.94527
O         16.11189        34.85245        -3.79627
O         18.37049         9.97787        -1.00538
O          3.76543        20.53532        -0.69549
O          4.37435        17.27734        -1.72216
O          3.83897        33.88940         2.51328
O         18.83068        24.26937         2.79593
O          8.02898        18.38050         2.04733
O          3.71237         8.59911        -3.56848
O         20.17164        30.95082         0.21254
O          3.35570        31.34671        -0.24732
O         14.90505        21.85305         2.84031
O         15.18186         7.60845        -1.86248
O          3.46222         6.01948        -3.53025
O         16.41882         4.87417         2.45436
O         10.95220        32.06545         2.36605
O          3.31876        11.02793        -3.20119
O          8.19014        31.92685         3.02333
O         16.74582        34.02828         0.09341
O         12.95550         8.31518         1.12403
O         10.77578        12.54788        -2.32005
O         10.03936        22.37296         3.41050
H          9.25233        21.82928         3.63056
O         14.94843        10.17537        -2.27516
H         15.71818         9.66953        -2.61938
O         10.48210        32.56482        -1.24140
H         10.40896        33.28051        -1.90876
O         10.05596         9.84144        -2.47333
H         10.21714        10.74533        -2.84520
O          2.64732        27.07503         3.91894
H          1.79278        26.74061         4.26717
O         18.60611        18.81420         2.82723
H         17.82439        19.28132         3.19365
O         13.63598        24.68140        -0.50278
H         13.50866        25.57466        -0.88694
O          5.31956         4.12925        -3.41056
H          4.65055         4.68993        -3.87865
O          6.31139        33.81557         3.29460
H          5.42284        33.68840         3.70085
O          8.84301        15.66971        -2.40649
H          8.04072        16.21161        -2.56919
O         17.36828        36.33314        -1.02430
H         17.27968        35.95842        -0.11884
O          3.47926        11.99779         0.29439
H          3.39204        12.84937         0.77252
O          3.91260         8.69270        -0.05086
H          4.45072         8.95815         0.73043
O         12.90936         8.04472        -1.92014
H         13.30384         8.76418        -2.46606
O         13.76933        19.87602        -0.99249
H         13.75323        19.13225        -1.63189
O          7.69708        36.15477         2.48568
H          7.26526        35.51217         3.10374
O         17.69492         8.65776         2.91543
H         18.24293         8.26666         3.62908
O         16.25848        28.17669         2.66853
H         17.13142        28.60302         2.80690
O          2.73696        13.52466        -3.01400
H          2.88951        12.70033        -3.54052
O          9.69020         5.66277         1.59962
H          9.51897         6.59099         1.90271
O          8.65894         8.11239         1.41209
H          7.73039         8.04237         1.74266
O          1.13912        10.29841        -0.34327
H          0.30399        10.63460         0.04341
O          7.60258        38.88108         1.51820
H          7.68676        38.09232         2.10703
O          3.85200        23.06725         3.62942
H          3.19034        23.65710         4.05035
O          6.31760        12.35386        -3.00922
H          6.35781        13.29328        -3.28894
H          1.25805         2.82430        -1.23199
H         -0.82828         4.09806        -1.60370
H         -0.81764         6.46245        -2.27033
H         -0.71765         8.35760        -3.20654
H         -0.80546        10.73460        -2.67760
H         -0.88542        12.48821        -1.25294
H         -0.89505        14.87255        -0.70522
H         -0.88198        16.63175         0.19375
H         -0.85253        18.96618         0.87837
H         -0.88099        20.83888         1.13627
H         -0.87554        23.16814         1.82649
H         -0.82755        24.99571         2.37621
H         -0.86714        27.40804         2.09393
H         -0.88529        29.29040         1.74629
H         -0.93090        31.62668         1.03555
H         -0.78999        33.14406        -0.44099
H         -0.68975        35.43402        -1.37964
H          0.53523        37.52521        -1.79478
H          3.72942         2.73041        -1.28482
H          2.60700        38.87219        -1.66054
H          6.32392         2.57799        -1.41274
H          4.93455        39.14415        -0.82687
H          8.62363         2.54340        -0.81099
H          7.23947        39.28429        -0.48101
H         11.01924         2.47884        -0.17556
H          9.44884        39.07984        -1.40004
H         13.40917         2.45641         0.15262
H         11.71621        38.85161        -2.40125
H         15.90459         2.46950         0.17091
H         14.01199        38.69999        -3.26268
H         18.44983         2.37189         1.55937
H         16.34047        38.58985        -4.15557
H         20.15527         3.86769         2.27983
H         21.28078         5.79115         2.54817
H         21.63196         8.11522         1.92537
H         21.86329        10.07366         1.46734
H         21.97530        12.45271         1.03015
H         22.05509        14.34961         0.69340
H         22.07527        16.77873         0.77538
H         22.00583        18.70278         0.42427
H         21.98427        21.10305         0.62437
H         22.00778        22.91899         0.68961
H         22.10174        25.32060         0.70411
H         21.80257        26.97155        -0.58359
H         21.65280        29.25671        -1.44055
H         21.43504        31.02524        -2.33494
H         20.82116        32.79428        -3.87519
H         20.55255        34.43210        -4.74773
H         20.37723        36.61542        -5.83324
H         18.56460        38.21095        -5.22514
