         424
 CSIRO Nanostructure Databank - Neutral Graphene Oxide Data Set
C          1.42356         2.09788         1.53180
C          1.38037         3.49735         1.40583
C          2.59309         1.40102         1.28848
C          2.52043         4.22993         1.04061
C          1.31078         6.42248         1.08559
C          1.28750         7.80219         0.97076
C          2.50069         5.68302         0.90243
C          2.46236         8.53966         0.69049
C          1.25017        10.73774         0.73802
C          1.24259        12.11035         0.66912
C          2.45544         9.98317         0.60936
C          2.44545        12.85775         0.48690
C          1.24773        15.08186         0.59448
C          1.23576        16.41936         0.39439
C          2.44708        14.28014         0.39658
C          2.42010        17.11995        -0.22282
C          2.49474        18.59628         0.05957
C          3.77562         2.09713         0.90995
C          3.73819         3.52534         0.80029
C          4.97274         1.39659         0.63523
C          4.92517         4.22770         0.42412
C          3.69395         6.38887         0.58223
C          3.68177         7.82086         0.50279
C          4.91381         5.67601         0.33040
C          4.89649         8.53558         0.26410
C          3.66951        10.68453         0.40417
C          3.67608        12.12209         0.36698
C          4.89670         9.95790         0.23510
C          4.90346        12.81409         0.23972
C          3.67707        14.97095         0.20556
C          3.70751        16.39674         0.08887
C          4.90992        14.24406         0.20342
C          4.91713        17.08639         0.12859
C          3.66848        19.24856         0.15421
C          4.95260        18.54952         0.15437
C          6.13447         2.07683         0.22774
C          6.09258         3.50340         0.13525
C          7.35777         1.37201        -0.02003
C          7.26360         4.21712        -0.39971
C          6.10070         6.38564         0.04463
C          6.12445         7.82035         0.07276
C          7.32818         5.68532        -0.22105
C          7.34630         8.51236        -0.09432
C          6.12446        10.65800         0.04245
C          6.14141        12.08428         0.08317
C          7.35634         9.94741        -0.10732
C          7.36167        12.76528        -0.07614
C          6.12867        14.95643         0.14138
C          6.14995        16.35852         0.14957
C          7.44352        14.23391         0.24110
C          7.40964        17.06537         0.11692
C          6.13196        19.22046         0.28096
C          7.43846        18.51203         0.53134
C          8.54225         2.01015        -0.40260
C          8.49735         3.44949        -0.76597
C          9.77810         1.33683        -0.43332
C          9.79660         4.22958        -1.02676
C          8.53891         6.34928        -0.30246
C          8.58720         7.78898        -0.25395
C          9.82628         5.55299        -0.22269
C          9.80679         8.46055        -0.41949
C          8.56944        10.65804        -0.28779
C          8.56430        12.06525        -0.32907
C          9.90541         9.95391        -0.23781
C          9.81173        12.80319        -0.55782
C          8.49854        14.93819        -0.59609
C          8.58116        16.39817        -0.21293
C          9.81753        14.20836        -0.54010
C          9.82082        17.08898        -0.34657
C          8.66204        19.22619         0.03267
C          9.82598        18.53300        -0.26159
C         11.01447         2.02596        -0.55416
C         11.05687         3.45187        -0.71032
C         12.24124         1.33355        -0.50653
C         12.26324         4.13358        -0.60583
C         11.03895         6.35093        -0.62511
C         11.01566         7.72014        -0.68709
C         12.28978         5.59308        -1.02627
C         12.25178         8.43041        -1.22752
C         10.94249        10.62267        -1.18117
C         11.01402        12.10545        -0.86001
C         12.27650         9.92892        -1.04248
C         12.21490        12.80302        -0.96665
C         11.02554        14.93073        -0.65021
C         11.03090        16.37676        -0.58773
C         12.24936        14.22005        -0.80809
C         12.25728        17.07794        -0.71890
C         11.07237        19.20981        -0.51096
C         12.24428        18.51813        -0.71086
C         13.47733         1.99431        -0.35804
C         13.47686         3.44623        -0.26429
C         14.66981         1.19641        -0.51148
C         14.65171         4.23425        -0.00998
C         13.52027         6.36354        -0.62121
C         13.51278         7.75060        -0.75111
C         14.69308         5.67454        -0.21586
C         14.70064         8.50183        -0.54111
C         13.45787        10.60665        -1.02944
C         13.46828        12.08030        -1.38682
C         14.72661         9.91836        -0.78278
C         14.73272        12.80760        -1.00871
C         13.49005        14.93831        -0.84597
C         13.49486        16.35288        -0.81534
C         14.73536        14.19366        -0.88654
C         14.74555        17.06796        -0.82655
C         13.50752        19.30054        -0.97714
C         14.77598        18.49206        -0.85416
C         15.88514         1.56023         0.06997
C         15.82017         3.66086         0.51235
C         17.21709         1.25079        -0.25147
C         17.11086         4.25719         0.45944
C         15.87369         6.40181         0.04985
C         15.89189         7.82583        -0.13918
C         17.11879         5.70933         0.35192
C         17.08736         8.57334         0.02398
C         15.93889        10.61182        -0.71892
C         16.01706        12.04430        -1.20472
C         17.14144         9.94093        -0.31689
C         17.23372        12.78554        -0.72085
C         15.97995        14.91867        -0.79104
C         15.97767        16.34198        -0.77273
C         17.21576        14.19782        -0.69616
C         17.21483        17.05450        -0.70748
C         15.98383        19.17298        -0.82947
C         17.22783        18.48271        -0.74663
C         18.34170         2.05293         0.13413
C         18.28363         3.46974         0.47962
C         19.60698         1.43878        -0.00745
C         19.55926         4.18195         0.66973
C         18.29428         6.41530         0.47787
C         18.26595         7.91401         0.67548
C         19.55489         5.70222         0.71552
C         19.57834         8.60144         0.42593
C         18.39759        10.65324        -0.24506
C         18.43463        12.07013        -0.45550
C         19.61114         9.95111         0.09436
C         19.66900        12.78026        -0.35362
C         18.44420        14.91997        -0.55619
C         18.44858        16.34474        -0.59593
C         19.67571        14.20942        -0.45819
C         19.67741        17.05984        -0.53085
C         18.45659        19.18000        -0.71345
C         19.68557        18.49686        -0.61661
C         20.86317         2.10408         0.09796
C         20.85465         3.53365         0.38258
C         22.04891         1.44763        -0.20799
C         22.03733         4.25212         0.45031
C         20.80422         6.43603         0.26669
C         20.81433         7.85331         0.86177
C         22.08407         5.68245         0.54426
C         22.11232         8.55816         0.56462
C         20.87904        10.66440         0.11375
C         20.90046        12.06530        -0.12517
C         22.10219         9.97103         0.35568
C         22.13697        12.75709        -0.10871
C         20.89170        14.93877        -0.41034
C         20.90395        16.34336        -0.42474
C         22.20182        14.20518        -0.52892
C         22.16241        17.07319        -0.37558
C         20.92625        19.19202        -0.62099
C         22.15652        18.51723        -0.51348
C         23.34224         2.20661        -0.32652
C         23.30508         3.45714         0.60331
C         24.54444         1.38495         0.04247
C         24.55923         4.27381         0.48174
C         23.28692         6.37592         0.65491
C         23.31064         7.83453         0.63083
C         24.54982         5.64433         0.60025
C         24.57230         8.52791         0.66524
C         23.34616        10.67037         0.34107
C         23.34786        12.08264         0.13259
C         24.57621         9.96670         0.54921
C         24.60290        12.80866         0.12720
C         23.31063        14.94103         0.20866
C         23.35981        16.39950        -0.17345
C         24.62223        14.21468         0.06111
C         24.61815        17.08055        -0.20367
C         23.39124        19.20932        -0.48580
C         24.62558        18.53356        -0.35164
C         25.78178         2.06010         0.56964
C         25.82882         3.53747         0.14335
C         27.07374         1.38960         0.16410
C         27.08189         4.24983         0.59093
C         25.80965         6.37609         0.67919
C         25.78265         7.79109         0.78388
C         27.03314         5.64734         0.77568
C         27.04183         8.51630         1.04134
C         25.79293        10.69852         0.52619
C         25.82640        12.09109         0.26438
C         27.04673        10.03296         0.89093
C         27.07369        12.80517         0.21768
C         25.83520        14.93169        -0.00024
C         25.81884        16.36469        -0.11630
C         27.07678        14.20912         0.03587
C         27.10511        17.08144        -0.44182
C         25.84387        19.23572        -0.26170
C         27.09102        18.55541        -0.10127
C         28.25507         2.09268         0.18039
C         28.29395         3.52108         0.49263
C         29.51300         1.41565        -0.03441
C         29.55778         4.17194         0.56025
C         28.29390         6.36091         1.06666
C         28.33248         7.82177         0.91841
C         29.61048         5.59461         0.93872
C         29.53094         8.51129         0.77228
C         28.32693        10.69451         0.59757
C         28.31783        12.08946         0.32589
C         29.53181         9.96384         0.61662
C         29.55125        12.78905         0.20511
C         28.32560        14.92545         0.02081
C         28.34115        16.34668         0.00082
C         29.54918        14.21495         0.11549
C         29.52998        17.03931         0.22301
C         28.25226        19.21570         0.21503
C         29.49178        18.48608         0.65321
C         30.71633         2.06833         0.03344
C         30.75992         3.49069         0.28215
C         31.99263         1.26403        -0.04458
C         32.00947         4.20602         0.21788
C         30.82459         6.36739         0.63215
C         30.78007         7.77740         0.61048
C         32.02231         5.63703         0.33969
C         31.97708         8.50081         0.29907
C         30.75357        10.66053         0.36057
C         30.78133        12.07257         0.19052
C         31.96689         9.93099         0.18910
C         32.02870        12.78214         0.01849
C         30.78626        14.92367         0.13993
C         30.76870        16.34247         0.24253
C         32.02281        14.21041         0.08966
C         32.00939        17.05801         0.34795
C         30.78902        19.20493         0.41672
C         31.99371        18.52507         0.43239
C         33.24601         2.08707        -0.23186
C         33.22314         3.51558        -0.07166
C         34.42674         1.43070        -0.50523
C         34.45029         4.23838        -0.21918
C         33.23666         6.34920         0.14548
C         33.19100         7.77970         0.12482
C         34.46289         5.66034        -0.13297
C         34.34493         8.47986        -0.31210
C         33.12422        10.63112        -0.25760
C         33.24225        12.07525        -0.21474
C         34.16916         9.79531        -0.71675
C         34.50354        12.81945        -0.25568
C         33.25580        14.93130         0.12207
C         33.21261        16.36227         0.30763
C         34.47937        14.22739        -0.03020
C         34.45575        17.08636         0.64986
C         33.23820        19.23187         0.50991
C         34.46408        18.56660         0.65204
C         35.67694         2.12547        -0.59112
C         35.67865         3.54709        -0.44437
C         36.89023         1.44458        -0.80624
C         36.91674         4.25646        -0.47157
C         35.70199         6.36446        -0.28544
C         35.67927         7.83891        -0.20135
C         36.92931         5.69568        -0.38482
C         36.97888         8.59433        -0.28418
C         36.03346        10.87637        -0.80143
C         35.81000        12.20724        -0.35158
C         37.06901        10.06849        -0.40417
C         37.04057        12.88600         0.01164
C         35.76179        15.03285        -0.18243
C         35.75543        16.36270         0.54869
C         37.01809        14.28210         0.14095
C         37.01571        17.14766         0.56026
C         35.69301        19.24267         0.76218
C         36.95520        18.56942         0.75699
C         38.11904         2.13086        -0.78405
C         38.12674         3.53191        -0.56666
C         39.36280         1.44606        -1.09642
C         39.40137         4.23983        -0.37862
C         38.19940         6.42029        -0.43118
C         38.24704         7.83905        -0.43701
C         39.42672         5.70892        -0.45914
C         39.47927         8.53075        -0.41692
C         38.29080        10.67199         0.21513
C         38.26211        12.16905         0.08272
C         39.50750        10.05126        -0.51709
C         39.53885        12.88441        -0.25847
C         38.24459        15.00836         0.46767
C         38.23544        16.48539         0.51568
C         39.55713        14.29854         0.29309
C         39.47516        17.18587         0.65406
C         38.16770        19.26326         0.92916
C         39.41706        18.59750         0.89873
C         40.56141         2.08013        -1.12181
C         40.70109         3.46789        -0.64949
C         41.87831         4.28164        -0.97988
C         40.67017         6.38503        -0.50568
C         40.69694         7.81500        -0.41273
C         41.87358         5.62849        -0.80066
C         41.93075         8.54748        -0.20812
C         40.79405        10.72651        -0.07898
C         40.79207        12.10147         0.09620
C         41.96736         9.89554         0.01770
C         41.94509        12.88291         0.51218
C         40.82831        15.09576         0.03683
C         40.74174        16.52337         0.57024
C         41.97504        14.23958         0.54975
C         41.89826        17.26569         0.76998
C         40.63381        19.30947         1.11039
C         41.84217        18.64742         1.06576
O         39.01795        14.41262         1.61792
O          7.51800         3.76246        -1.81442
O         40.21170         3.68692         0.71309
O         15.73601         2.44367         1.17086
O         26.98640         9.39892         2.21770
O         29.01500         5.87514         2.25077
O         36.36538         8.28850         1.06427
O         35.06900        10.31514        -1.64294
O         35.07962        16.42307         1.83498
O         19.63392         4.95326         1.94936
O          2.22869        17.00730        -1.68098
H          2.22680        16.05070        -1.89798
O         35.85185        15.40538        -1.60634
H         35.90277        14.57606        -2.12797
O         25.74165         1.96302         2.02284
H         24.82628         2.22729         2.30376
O         10.44045        10.17073         1.11094
H          9.76303         9.87623         1.75518
O         13.46591        12.07835        -2.87643
H         13.24884        12.98981        -3.16807
O         23.23789         2.92200         1.97672
H         22.97243         3.65663         2.57070
O         22.96755        14.89614         1.62747
H         23.66649        15.37269         2.12229
O         39.31871        10.34382        -1.94796
H         40.03378         9.88427        -2.43765
O         22.55623        14.21373        -1.94607
H         21.83184        13.77533        -2.43979
O         25.93848         3.52707        -1.33510
H         25.99966         4.46110        -1.62852
O         39.53687        13.02440        -1.72858
H         39.44251        12.10193        -2.09283
O          7.58583        18.50601         2.01596
H          8.37494        17.95898         2.22021
O          9.82516         4.55870        -2.43705
H          8.88846         4.49313        -2.75506
O          7.88439        14.32865         1.63212
H          7.19168        13.92292         2.19430
O         16.19937        11.94876        -2.67311
H         15.30218        11.75949        -3.05088
O         18.03623         8.04453         2.13831
H         18.83945         7.66195         2.57237
O         12.32007         5.56964        -2.50210
H         11.46980         5.14377        -2.79042
O         20.68031         6.54889        -1.17446
H         21.49586         6.96808        -1.52089
O         10.48944        10.48729        -2.54543
H         10.98940         9.73724        -2.95150
O          9.97032         5.15191         1.17620
H         10.08966         5.96379         1.71223
O         31.89700         0.25333        -1.05893
H         31.80433         0.69828        -1.92587
O         38.38938        10.31126         1.61792
H         37.68237         9.65856         1.82302
O         12.18081         8.26955        -2.68823
H         12.26676         7.29073        -2.86793
O         20.75528         7.68425         2.31889
H         20.99063         8.54410         2.72785
O         41.01718        15.25500        -1.39440
H         40.70173        14.42763        -1.83448
O         29.37478        18.42462         2.13619
H         30.18937        17.99270         2.47307
O         13.43934        19.86278        -2.30775
H         13.41422        19.12162        -2.94722
O         27.18212        17.03910        -1.91789
H         26.36934        17.46889        -2.26104
O         23.42375         2.65705        -1.71163
H         24.37625         2.86272        -1.89459
O          8.04886        14.87509        -1.97962
H          8.73063        15.30068        -2.53983
H          0.51207         1.55711         1.82270
H          0.42876         4.00819         1.60373
H          2.62030         0.30585         1.37996
H          0.37177         5.90411         1.32060
H          0.33188         8.32142         1.12108
H          0.29379        10.21733         0.88078
H          0.28250        12.63701         0.75418
H          0.33618        14.58741         0.96057
H          0.31240        16.99414         0.56278
H          1.54724        19.15591         0.09210
H          4.98701         0.30012         0.72221
H          3.68482        20.34005         0.29833
H          7.38268         0.29072         0.18372
H          6.12840        20.31971         0.34925
H          9.79718         0.25391        -0.23874
H          8.68745        20.32504         0.09344
H         12.22957         0.23410        -0.53002
H         11.08484        20.30990        -0.50486
H         14.60664         0.29963        -1.14543
H         13.55663        20.17568        -0.27834
H         17.42124         0.35930        -0.86349
H         15.98526        20.27223        -0.86864
H         19.62485         0.37118        -0.27684
H         18.45161        20.27863        -0.76980
H         22.00840         0.41501        -0.58785
H         20.91990        20.28923        -0.70450
H         24.38926         0.33798         0.35502
H         23.39040        20.30693        -0.56450
H         27.08451         0.30272        -0.00872
H         25.82421        20.33526        -0.20940
H         29.49996         0.33132        -0.22056
H         28.22774        20.30739         0.36458
H         32.09693         0.70945         0.93085
H         30.79203        20.30467         0.47429
H         34.41593         0.33764        -0.62855
H         33.21845        20.33227         0.50494
H         36.87982         0.35580        -0.96301
H         35.68814        20.34176         0.82399
H         39.29632         0.39252        -1.40714
H         38.14694        20.34826         1.11222
H         41.45955         1.55870        -1.48577
H         42.77848         3.77716        -1.36197
H         42.79555         6.18823        -1.01351
H         42.87035         7.98196        -0.14086
H         42.93308        10.36743         0.24974
H         42.84060        12.33268         0.84091
H         42.89863        14.73506         0.88629
H         42.88346        16.78745         0.67719
H         40.59566        20.39064         1.30700
H         42.77906        19.19896         1.22724
