         732
 CSIRO Nanostructure Databank - Neutral Graphene Oxide Data Set
C         22.54829        25.00891         0.10907
C         21.54812        25.56953         0.91981
C         23.01020        27.47350         1.38621
C         21.76957        26.79674         1.51951
C         23.14663        28.85200         1.77635
C         22.06651        29.57630         2.35054
C         23.23474        31.68672         2.00806
C         22.11258        30.94462         2.47655
C         23.22444        33.11719         1.98819
C         22.18114        33.88442         2.54460
C         23.29483        36.00660         1.99095
C         22.17968        35.27005         2.51880
C         23.29496        37.47193         1.99246
C         22.13607        38.20701         2.25266
C         23.30245        40.34397         1.95507
C         22.13303        39.60438         2.21445
C         23.28455        41.79357         1.87064
C         22.09820        42.52142         2.09329
C         23.21427        44.63856         1.61306
C         22.06458        43.90109         1.95862
C         23.14305        46.09008         1.47132
C         21.97812        46.79777         1.59262
C         22.99433        48.92603         0.96237
C         21.93115        48.23545         1.43202
C         25.85883        23.10666        -0.66302
C         25.78707        24.48323        -0.39755
C         23.78613        25.63576         0.02781
C         25.42902        27.42100         0.77192
C         24.10326        26.83072         0.72535
C         25.53431        28.78191         1.11307
C         24.35060        29.54003         1.46287
C         25.60384        31.66386         1.25941
C         24.38132        30.95864         1.55718
C         25.61105        33.07867         1.20722
C         24.29161        33.82365         1.19665
C         25.56249        36.02574         0.90604
C         24.37709        35.30603         1.48041
C         25.65864        37.46807         1.34388
C         24.51919        38.18439         1.71862
C         25.71145        40.37492         1.47853
C         24.53127        39.63927         1.75447
C         25.68500        41.78644         1.30392
C         24.47065        42.51261         1.51924
C         25.63354        44.66438         1.01452
C         24.43998        43.94340         1.39700
C         25.61329        46.06795         0.83443
C         24.43147        46.87129         1.33066
C         25.44996        48.87666         0.04629
C         24.22571        48.18221         0.58704
C         25.48821        50.33702        -0.13340
C         28.08265        23.06271         0.28205
C         26.96570        22.38482        -0.24718
C         28.03163        24.47462         0.47010
C         26.80717        25.18425         0.27312
C         28.00700        27.30822         1.06450
C         26.67139        26.57921         0.79254
C         28.02329        28.78361         1.01984
C         26.81033        29.48573         1.09588
C         28.04301        31.62921         0.93956
C         26.81558        30.92625         1.10832
C         28.04935        33.05788         0.96514
C         26.82733        33.76946         1.08564
C         28.15041        35.97607         1.01644
C         26.83775        35.24543         1.22895
C         28.14992        37.44368         0.82265
C         26.95812        38.14163         1.36214
C         28.29302        40.38853         1.11248
C         26.99818        39.65688         1.46150
C         28.07654        41.79525         0.60403
C         26.87450        42.49508         0.89880
C         28.03372        44.59463         0.40304
C         26.84116        43.91272         0.74357
C         28.10031        46.08930         0.56027
C         26.77178        46.78844         0.42834
C         27.93227        48.90040        -0.19884
C         26.74938        48.16551         0.12646
C         27.92234        50.28935        -0.40349
C         26.65969        50.99523        -0.31018
C         30.54004        20.24724         0.84031
C         29.34159        20.92774         0.68284
C         30.53575        23.05342         0.60242
C         29.31064        22.33233         0.54747
C         30.51904        24.47398         0.62394
C         29.27189        25.19303         0.71316
C         30.54923        27.30290         1.19026
C         29.27173        26.57874         0.86253
C         30.51976        28.77470         0.83837
C         29.28108        29.47579         0.86895
C         30.49276        31.61287         0.57877
C         29.26652        30.90347         0.77716
C         30.48791        33.03913         0.46182
C         29.28293        33.76913         0.70744
C         30.39050        35.84688        -0.08101
C         29.29088        35.17050         0.61059
C         30.32727        37.33278        -0.30807
C         29.22744        38.12166         0.31293
C         30.35150        40.24574        -0.27662
C         29.28850        39.58467         0.27557
C         30.32121        41.72975        -0.56458
C         29.18760        42.47342         0.09673
C         30.45771        44.59047        -0.22435
C         29.19890        43.89181         0.04968
C         30.48988        45.97987        -0.28394
C         29.19298        46.69129        -0.28684
C         30.45497        48.88328        -0.59716
C         29.17193        48.15742        -0.51560
C         30.42169        50.26378        -0.65927
C         29.15946        50.98344        -0.70096
C         30.40225        53.00558        -1.37228
C         29.19396        52.33347        -1.06138
C         33.12892        18.84622         1.15075
C         33.05091        20.21963         0.82992
C         31.78335        20.92445         0.77300
C         33.00502        23.04479         0.41624
C         31.77631        22.33451         0.62068
C         32.99621        24.46589         0.32970
C         31.75996        25.20083         0.55922
C         33.09246        27.29364         0.82077
C         31.77556        26.57969         0.70370
C         33.00969        28.77203         0.52896
C         31.74984        29.47706         0.67875
C         32.96630        31.65465         0.50531
C         31.71420        30.89250         0.54641
C         32.94187        33.06898         0.13078
C         31.70391        33.75842         0.15378
C         32.89262        35.88004        -0.28652
C         31.68187        35.14500        -0.12172
C         32.86824        37.29721        -0.45488
C         31.61339        38.02749        -0.64729
C         32.84761        40.30562        -0.64689
C         31.58871        39.54759        -0.71671
C         32.87394        41.70661        -0.58302
C         31.65533        42.43867        -0.44780
C         32.91684        44.55817        -0.53837
C         31.67626        43.83901        -0.39456
C         32.91869        45.96387        -0.51589
C         31.70773        46.71454        -0.45174
C         32.91833        48.87569        -0.75583
C         31.70221        48.14393        -0.56973
C         32.92908        50.26637        -0.91547
C         31.70031        51.05911        -0.54430
C         32.89995        53.10740        -1.39231
C         31.64331        52.42000        -1.19297
C         32.93116        54.46125        -1.89663
C         35.55082        18.84753         0.83836
C         34.34609        18.18664         1.17786
C         35.50024        20.21592         0.48014
C         34.25846        20.91522         0.52530
C         35.42011        23.01369        -0.10611
C         34.22245        22.32668         0.27356
C         35.39077        24.43438        -0.27905
C         34.19044        25.15931         0.02763
C         35.31168        27.29811        -0.37653
C         34.21167        26.59453         0.08482
C         35.35517        28.72331        -0.28352
C         34.18888        29.42959         0.17871
C         35.40777        31.61227        -0.29737
C         34.27218        30.89182         0.29610
C         35.38086        33.01990        -0.39245
C         34.15280        33.75336        -0.15483
C         35.39646        35.88222        -0.43413
C         34.12757        35.16339        -0.26979
C         35.41633        37.36073        -0.50052
C         34.10366        38.07399        -0.34865
C         35.37099        40.26054        -0.85865
C         34.10921        39.57359        -0.52015
C         35.35855        41.68697        -0.92388
C         34.13598        42.41461        -0.70025
C         35.36535        44.52477        -1.04056
C         34.14780        43.82445        -0.72859
C         35.38693        45.94318        -1.04153
C         34.20868        46.67244        -0.55967
C         35.43233        48.84822        -1.22200
C         34.21702        48.17600        -0.71076
C         35.38194        50.28353        -1.30214
C         34.15496        50.97334        -1.13198
C         35.37342        53.16902        -1.16225
C         34.11381        52.41880        -1.21652
C         35.37437        54.65904        -1.62885
C         34.08360        55.15126        -2.11681
C         38.23197        16.20206         1.30956
C         36.96310        16.87419         1.33133
C         38.09289        18.85560         0.39983
C         36.82370        18.14502         0.84190
C         37.84254        20.15745        -0.31701
C         36.68440        20.87670        -0.05525
C         37.81153        22.98618        -0.73003
C         36.61435        22.29108        -0.34434
C         37.76974        24.42721        -0.88793
C         36.56313        25.12227        -0.69693
C         37.70313        27.33641        -1.14729
C         36.40577        26.57032        -1.11972
C         37.72253        28.70857        -1.09184
C         36.51423        29.44464        -0.70394
C         37.70281        31.56277        -1.34119
C         36.52274        30.85369        -0.72665
C         37.77057        33.02631        -1.02593
C         36.58524        33.72598        -0.77085
C         37.75741        35.85647        -1.15975
C         36.59781        35.15082        -0.86091
C         37.76063        37.29108        -1.65481
C         36.41508        38.05736        -1.41131
C         37.79346        40.18608        -1.26984
C         36.54918        39.52381        -1.06831
C         37.77424        41.62313        -1.58832
C         36.54260        42.37527        -1.27962
C         37.72390        44.48697        -1.78478
C         36.56216        43.78393        -1.33070
C         37.53089        45.82227        -2.07999
C         36.50050        46.65737        -1.54255
C         37.86467        48.88258        -1.93418
C         36.58280        48.10727        -1.52544
C         37.82488        50.29746        -1.40235
C         36.64115        51.00360        -1.35106
C         37.83243        53.17890        -1.40401
C         36.65627        52.46252        -1.24371
C         37.88474        54.57730        -1.77072
C         36.66178        55.24874        -2.06798
C         37.89877        57.05208        -3.10867
C         36.68519        56.47828        -2.74557
C         40.66080        14.64884         0.98035
C         40.55684        15.96934         0.52521
C         39.27345        16.65733         0.54906
C         40.33472        18.57060        -0.75551
C         39.03388        17.87207        -0.33908
C         40.26168        20.02784        -1.17154
C         38.89993        20.76241        -1.21949
C         40.18393        22.97614        -1.44257
C         38.97513        22.26598        -1.03179
C         40.19640        24.45480        -1.38026
C         38.98095        25.12450        -1.26126
C         40.21221        27.32963        -1.71949
C         38.90740        26.57343        -1.53556
C         40.23907        28.77037        -1.40234
C         38.98487        29.45448        -1.19883
C         40.23276        31.56856        -0.71167
C         38.98276        30.82993        -1.08526
C         40.23733        33.03610        -1.03521
C         39.00369        33.73069        -1.08714
C         40.21555        35.89110        -1.01089
C         39.00249        35.16301        -1.13646
C         40.16815        37.33268        -0.96471
C         39.00111        38.04380        -1.21347
C         40.26019        40.21736        -1.18799
C         39.00917        39.48036        -1.26877
C         40.30688        41.63292        -1.34626
C         39.09496        42.35159        -1.81900
C         40.27149        44.61287        -1.39956
C         39.11402        43.87266        -2.09767
C         40.39218        46.00586        -1.40657
C         39.39249        46.89886        -1.95460
C         40.34053        48.88745        -1.05680
C         39.17471        48.18886        -1.54120
C         40.34624        50.28969        -1.00342
C         39.04360        51.02353        -0.88669
C         40.40704        53.16798        -1.40410
C         39.10332        52.42567        -1.44890
C         40.41929        54.65064        -1.51872
C         39.14691        55.22470        -2.00890
C         40.97509        57.60970        -2.09748
C         39.09630        56.43690        -2.72188
C         40.96714        59.00383        -2.01333
C         43.05605        14.66138         0.65778
C         41.90515        14.00511         1.05180
C         43.00372        15.99338         0.15876
C         41.73535        16.66021         0.09582
C         42.82508        18.71810        -0.72107
C         41.65848        18.00013        -0.40049
C         42.75277        20.12411        -1.06074
C         41.53056        20.78270        -1.15680
C         42.75605        22.99040        -1.19153
C         41.49512        22.21474        -1.50736
C         42.72952        24.45222        -1.57141
C         41.45071        25.17266        -1.50846
C         42.71687        27.29925        -1.75534
C         41.45288        26.55407        -1.61402
C         42.72045        28.79875        -1.70100
C         41.44581        29.48677        -1.41222
C         42.70738        31.59663        -1.09883
C         41.49300        30.87527        -1.13828
C         42.70407        33.02379        -0.92949
C         41.45730        33.73801        -0.97512
C         42.66942        35.85480        -0.65348
C         41.45137        35.17737        -0.89079
C         42.64489        37.28543        -0.32062
C         41.35738        38.07586        -0.51338
C         42.61102        40.24412        -0.48183
C         41.42830        39.53638        -0.76146
C         42.63607        41.66753        -0.52467
C         41.45126        42.35049        -0.93349
C         42.66622        44.56868        -0.39471
C         41.35196        43.82683        -0.77276
C         42.73344        46.01685        -0.60201
C         41.55483        46.71573        -0.90583
C         42.76551        48.85272        -0.64030
C         41.55295        48.14910        -0.88614
C         42.76856        50.27932        -0.64080
C         41.56093        50.99807        -0.86534
C         42.74206        53.13176        -0.57513
C         41.59330        52.43317        -0.91464
C         42.58694        54.60498        -0.27095
C         41.56831        55.33929        -1.15435
C         42.72605        57.46131        -0.44947
C         41.73998        56.79004        -1.23457
C         42.68627        58.86503        -0.33326
C         41.78169        59.62992        -1.06629
C         45.41432        15.93773        -0.49309
C         44.17100        16.65253        -0.33180
C         45.24043        18.64259        -1.28882
C         44.10469        18.02493        -0.74552
C         45.21057        20.05879        -1.67719
C         43.98610        20.85214        -1.39136
C         45.22664        22.93300        -2.00075
C         43.99753        22.20804        -1.56918
C         45.17302        24.44212        -2.03359
C         43.91639        25.13039        -1.66957
C         45.23115        27.34562        -1.51929
C         43.95353        26.58898        -1.28109
C         45.20360        28.78022        -1.37349
C         43.98620        29.49820        -1.37816
C         45.18712        31.60312        -0.93570
C         43.96410        30.89573        -1.17440
C         45.16870        33.03824        -0.73525
C         43.93258        33.73512        -0.78449
C         45.13136        35.89772        -0.46144
C         43.91533        35.17189        -0.64117
C         45.10278        37.34591        -0.35587
C         43.91103        38.02605        -0.30592
C         45.09356        40.23845         0.15629
C         43.80659        39.48624        -0.02843
C         45.10179        41.70121        -0.03414
C         43.88771        42.39123        -0.25680
C         45.15019        44.52659        -0.22676
C         43.92516        43.81444        -0.31520
C         45.17682        45.96722        -0.24976
C         43.96952        46.70339        -0.43636
C         45.20429        48.84567        -0.28774
C         43.98235        48.13181        -0.45891
C         45.18126        50.26354        -0.26347
C         43.98242        50.99231        -0.41677
C         45.14687        53.15363         0.01038
C         43.96522        52.43470        -0.32442
C         45.10803        54.58946         0.16045
C         43.90738        55.31241        -0.08071
C         45.07589        57.38527         0.41388
C         43.89021        56.71222         0.03021
C         46.49846        16.48311        -1.08922
C         47.71389        18.68158        -1.11764
C         46.50763        17.88582        -1.61252
C         47.88760        20.06687        -1.69782
C         46.54226        20.79267        -1.86301
C         47.69717        22.96643        -1.50298
C         46.54008        22.26836        -1.76885
C         47.72508        24.43971        -1.67170
C         46.45591        25.21104        -1.93567
C         47.68628        27.36396        -1.45359
C         46.42769        26.65748        -1.59107
C         47.65501        28.76345        -1.19273
C         46.43547        29.48681        -1.15567
C         47.57206        31.57859        -0.23738
C         46.39534        30.88874        -0.88499
C         47.62431        33.06718        -0.47017
C         46.38941        33.76495        -0.53805
C         47.59471        35.87411        -0.06787
C         46.37284        35.19435        -0.38594
C         47.51062        37.31416         0.42300
C         46.42790        38.07635        -0.36621
C         47.55682        40.20820         0.59157
C         46.34764        39.50602         0.06753
C         47.58062        41.67532         0.22704
C         46.35468        42.38595         0.03800
C         47.61232        44.51393         0.08999
C         46.38035        43.81249        -0.06340
C         47.63210        45.95023         0.08471
C         46.40993        46.67229        -0.09559
C         47.65992        48.78054         0.07373
C         46.42739        48.10251        -0.10892
C         47.70865        50.25885         0.01157
C         46.43767        51.02256        -0.14756
C         47.53443        53.12609         0.61958
C         46.37880        52.46173         0.21295
C         47.53981        54.55320         0.73257
C         46.30523        55.28476         0.50488
C         46.24607        56.68997         0.65147
C         49.89933        18.85993        -0.04855
C         48.70903        18.13618        -0.35741
C         50.03952        20.20868        -0.36640
C         48.93179        20.89810        -0.97586
C         50.06882        23.03912        -0.58362
C         48.91445        22.28713        -1.04740
C         50.03849        24.52309        -0.54305
C         48.84214        25.22291        -1.07224
C         50.23699        27.31733        -1.58695
C         48.89982        26.65853        -1.39226
C         50.21239        28.79741        -1.27145
C         48.92826        29.43226        -0.88545
C         50.09367        31.69031        -0.83710
C         48.90066        30.86624        -0.48275
C         50.11547        33.09895        -0.41655
C         48.83699        33.76496        -0.31187
C         50.07372        35.82137         0.31692
C         48.79843        35.17321        -0.06035
C         50.06835        37.33826         0.48304
C         48.81515        38.07889         0.33247
C         50.07612        40.18786         0.31545
C         48.83997        39.46063         0.31421
C         50.06427        41.62938         0.38614
C         48.80614        42.35570         0.30471
C         50.04922        44.48542         0.50725
C         48.82566        43.78904         0.27312
C         50.07569        45.91056         0.52779
C         48.85743        46.64968         0.27542
C         50.12114        48.82414         0.41215
C         48.85410        48.07221         0.26046
C         50.05686        50.27167         0.76322
C         48.88047        50.95202         0.59351
C         50.04070        53.12066         1.07990
C         48.73756        52.35596         1.12640
C         49.98001        54.50649         1.09043
C         48.76017        55.20578         0.97962
C         52.42286        20.33531         0.34868
C         51.23373        20.96443        -0.01649
C         52.33772        23.20369         0.51193
C         51.20140        22.40236        -0.11249
C         52.47430        24.61412        -0.02404
C         51.32305        25.27140        -0.47130
C         52.61037        27.31858        -0.78597
C         51.39364        26.62504        -0.87860
C         52.66651        28.73428        -1.23598
C         51.38245        29.48499        -1.20044
C         52.63230        31.71111        -0.86849
C         51.38617        30.97265        -1.12465
C         52.60579        33.07010        -0.56809
C         51.34209        33.77454        -0.35742
C         52.55701        35.88769         0.08074
C         51.35461        35.16607        -0.00126
C         52.54629        37.32339         0.26612
C         51.33785        38.05062         0.34233
C         52.55436        40.17142         0.42116
C         51.31607        39.47476         0.31305
C         52.59428        41.67329         0.29935
C         51.26372        42.34241         0.51843
C         52.46204        44.44452         1.08046
C         51.26688        43.76105         0.69326
C         52.45633        45.85422         1.21887
C         51.28236        46.56836         0.85642
C         52.45550        48.71616         1.49083
C         51.34662        48.03831         0.76401
C         52.44568        50.20654         1.60839
C         51.25135        50.97372         1.18269
C         52.53268        53.02906         1.49738
C         51.26874        52.37122         1.24865
C         53.61625        21.06782         0.55520
C         54.87902        23.19705         0.68361
C         53.64678        22.44994         0.53937
C         54.91240        24.60181         0.44416
C         53.71498        25.30233         0.03752
C         55.03661        27.41939        -0.19049
C         53.78980        26.68065        -0.32423
C         55.13534        28.81045        -0.51372
C         53.95811        29.49023        -1.12934
C         55.18820        31.74580        -0.93821
C         53.90528        30.99862        -1.12931
C         55.09609        33.14554        -0.45758
C         53.84959        33.80928        -0.38130
C         55.04304        35.94504        -0.03410
C         53.81963        35.20924        -0.09149
C         55.03322        37.37728         0.17891
C         53.77912        38.04096         0.32602
C         54.97780        40.12261         0.96767
C         53.73790        39.45399         0.51888
C         54.94625        41.56267         1.35207
C         53.70770        42.33600         1.07750
C         54.80714        44.26452         2.15508
C         53.66440        43.66941         1.35488
C         54.82579        45.80492         2.15574
C         53.65926        46.56892         1.64890
C         54.93194        48.70582         1.90953
C         53.71795        47.95569         1.64634
C         54.92289        50.16985         1.84976
C         53.74629        50.90251         1.72058
C         53.69956        52.34040         1.68247
C         57.27385        23.22627         1.12182
C         56.07760        22.53767         1.03758
C         57.33597        24.61019         0.86126
C         56.14059        25.31653         0.53970
C         57.41676        27.44931         0.48086
C         56.18973        26.73269         0.27628
C         57.48006        28.86196         0.21018
C         56.33313        29.52927        -0.29224
C         57.59513        31.75062        -0.16809
C         56.50032        30.95359        -0.84381
C         57.55278        33.11615        -0.07296
C         56.30097        33.85440        -0.23894
C         57.55479        36.00796        -0.38322
C         56.27439        35.25515        -0.13727
C         57.52134        37.45201         0.04784
C         56.25115        38.12306         0.22673
C         57.43388        40.27002         0.64981
C         56.25889        39.49474         0.60697
C         57.45770        41.61484         1.11462
C         56.22687        42.31432         1.44650
C         57.39765        44.39458         2.11552
C         56.16404        43.64837         1.79595
C         57.42216        45.85169         2.15647
C         56.13427        46.56930         2.25656
C         57.35877        48.75070         2.59628
C         56.12791        48.03248         2.09343
C         57.36508        50.18453         2.14068
C         56.21802        50.83064         1.85358
C         59.82842        24.63797         0.95668
C         58.59684        25.32233         0.92574
C         59.84034        27.46091         1.26948
C         58.58526        26.74257         0.85723
C         59.85201        28.91646         0.89781
C         58.73528        29.55937         0.41353
C         59.77547        31.74720         1.06097
C         58.90517        31.02485         0.02343
C         59.92072        33.21437         0.71672
C         58.75994        33.88628         0.27145
C         59.97731        36.01321         0.31606
C         58.78162        35.28500         0.11305
C         59.98131        37.47245         0.15840
C         58.70224        38.15734         0.12612
C         59.95021        40.35382         0.32551
C         58.65683        39.66489         0.00483
C         59.90062        41.78002         0.62865
C         58.69696        42.33726         1.12744
C         59.92241        44.52478         1.47595
C         58.76418        43.67090         1.73013
C         59.89369        45.90484         1.86083
C         58.63990        46.57023         2.13348
C         59.85937        48.67699         2.36981
C         58.65186        48.00106         2.31509
C         61.05196        25.34535         0.80897
C         61.08184        26.70865         0.86289
C         61.06441        29.65705         1.20326
C         61.06771        31.00330         1.27152
C         61.09162        33.94510         0.94865
C         61.12975        35.32034         0.73067
C         61.14453        38.21730         0.17150
C         61.12380        39.64587         0.27649
C         61.04904        42.59316         0.49750
C         61.03400        43.94216         0.83532
C         61.09843        46.65530         1.90389
C         61.08674        48.00602         2.18121
O         40.30480        18.94557        -2.17197
O         38.38160        41.75336        -2.94669
O         24.67326        25.12809        -0.92747
O         54.60540        31.60173        -2.28402
O         24.47548        48.16512        -0.84107
O         42.79725        28.06751        -2.98704
O         34.45337        47.53605         0.60711
O         34.12649        38.94580         0.85234
O         31.50891        38.73616        -1.94205
O         29.90406        36.43211        -1.38091
O         35.81844        36.75256         0.74726
O         28.87192        47.18064        -1.61956
O         41.65800        44.20367         0.61034
O         33.88518        31.37557         1.62297
O         39.38140        26.94990        -2.88004
O         53.51975        28.92809        -2.42028
O         41.78586        37.65294         0.82367
O         27.22662        26.70093         2.15554
O         39.87631        52.56160        -2.66338
O         35.75882        38.25420        -2.65273
O         54.83969        40.52526         2.39595
O         44.23154        39.82318         1.33170
O         27.19119        38.82950         2.65956
O         55.31183        46.24685         3.47454
O         47.33521        50.79616        -1.31940
O         47.39335        24.90330        -3.01399
O         38.49123        46.41066        -2.90220
O         50.02895        36.42389         1.66135
O         45.06416        23.65604        -3.26669
O         51.14376        48.52588        -0.61296
O         40.78531        22.48577        -2.74282
O         35.35987        54.28437        -0.22087
O         27.60354        35.66513         2.37660
O         45.78094        20.32379        -3.02230
O         58.25191        43.74002         3.09344
O         49.11599        29.86500         0.56429
O         48.98903        25.00367         0.39888
O         40.27996        57.03435        -3.17490
O         52.07213        49.33391         2.77243
O         50.55566        31.53465        -2.22204
O         42.74031        23.03917         0.28584
H         43.32366        23.77174         0.57907
O         37.83239        49.00281        -3.38532
H         37.98988        48.09929        -3.74688
O         30.00322        41.79071        -2.00313
H         30.01451        42.73358        -2.27400
O         29.00137        40.59869         2.37272
H         28.71825        39.87258         2.97935
O         38.82876        19.24103         1.61305
H         38.21457        19.74221         2.19028
O         30.64883        27.27201         2.68578
H         29.75575        27.47261         3.04366
O         54.54187        43.84039         3.51479
H         55.02541        44.46172         4.10761
O         59.59775        31.06312        -1.24816
H         58.92811        30.85489        -1.94253
O         35.96196        26.51883        -2.52349
H         36.71476        26.18826        -3.06022
O         24.80367        47.27548         2.69627
H         24.74543        46.48237         3.26979
O         56.99237        30.75107        -2.20572
H         56.20584        30.85132        -2.79982
O         59.85322        27.44064         2.75648
H         59.83452        26.49665         3.02485
O         41.95273        54.63562         1.06416
H         42.59415        54.26519         1.70713
O         25.44568        36.01358        -0.55565
H         24.94331        35.19385        -0.79706
O         51.96283        23.37284         1.92612
H         51.87139        22.47619         2.31260
O         38.82883        51.20323         0.55545
H         38.69393        50.31978         0.95843
O         38.40622        20.59745        -2.58974
H         39.07983        21.00472        -3.18053
O         39.37566        44.01781        -3.50878
H         38.84748        43.32321        -3.96647
O         57.66276        36.05428        -1.85397
H         58.46818        36.57004        -2.07139
O         58.45328        39.90966        -1.44963
H         59.26549        39.60459        -1.90785
O         59.03398        31.69555         2.31611
H         59.61624        32.03235         3.02830
O         37.49333        31.50760        -2.80389
H         37.45893        30.56132        -3.06309
O         47.29260        31.48167         1.19764
H         47.74476        30.66082         1.51140
O         46.63082        17.79237        -3.07692
H         46.11295        18.54379        -3.46055
O         50.53111        27.19636        -3.01931
H         51.35487        27.69820        -3.20438
O         47.43042        40.21056         2.06463
H         48.17735        40.73489         2.42394
O         33.44264        27.20077         2.25463
H         32.61218        27.37376         2.76041
O         48.44620        52.17493         2.57444
H         49.26405        51.82952         2.99430
O         52.91905        41.91098        -1.12777
H         52.76036        42.86179        -1.31154
O         23.85495        33.74765        -0.24369
H         22.91330        34.02603        -0.26621
O         48.45051        19.87866        -3.03085
H         48.02915        19.07020        -3.41087
O         31.86028        51.33812         0.90128
H         32.01746        50.48007         1.35085
O         38.37352        17.39517        -1.52105
H         38.68830        17.95415        -2.27208
O         46.91438        38.06087        -1.75667
H         46.24575        38.49976        -2.32346
O         57.20435        48.77741         4.05735
H         56.83945        47.90874         4.33446
O         47.10509        37.25941         1.80481
H         47.87188        36.93165         2.32418
O         37.92265        37.16995        -3.09021
H         37.09193        37.59646        -3.46207
O         28.55188        46.33613         1.93822
H         27.89827        45.92831         2.54488
O         40.25009        31.51536         0.77969
H         41.05789        31.98831         1.07655
O         43.81399        26.57376         0.19597
H         44.71096        26.56098         0.59309
H         22.36142        24.09630        -0.47064
H         20.57555        25.06968         1.02161
H         20.94922        27.26608         2.07656
H         21.16064        29.04855         2.67569
H         21.24176        31.46694         2.89379
H         21.34279        33.37909         3.04417
H         21.33580        35.80497         2.97253
H         21.18881        37.69262         2.46288
H         21.17932        40.11892         2.38913
H         21.17219        42.00484         2.37605
H         21.11327        44.41820         2.13925
H         21.02566        46.28867         1.79484
H         22.91992        50.00356         0.75989
H         20.98715        48.75171         1.65745
H         25.02000        22.61590        -1.17237
H         24.54056        50.89336        -0.13804
H         27.00272        21.30109        -0.41747
H         26.64487        52.08723        -0.42862
H         30.51355        19.15632         0.96415
H         28.40335        20.35614         0.69022
H         30.32317        54.03535        -1.74817
H         28.25863        52.89987        -1.16415
H         32.21879        18.28573         1.40299
H         31.98477        54.91617        -2.22058
H         34.36153        17.12170         1.44510
H         34.03792        56.10602        -2.65938
H         38.33662        15.29530         1.92223
H         36.11393        16.34374         1.78463
H         37.93042        57.99169        -3.67441
H         35.74986        56.99253        -3.00240
H         39.76151        14.09599         1.28220
H         40.33612        59.58801        -2.69511
H         44.01631        14.13654         0.73780
H         41.96179        12.97252         1.42292
H         43.39094        59.37944         0.33286
H         41.76943        60.72299        -0.95944
H         45.46898        14.88777        -0.17535
H         45.08560        58.47871         0.50982
H         47.38799        15.86487        -1.27636
H         47.14100        57.25397         0.94523
H         50.69792        18.33051         0.48832
H         48.62040        17.10440         0.01360
H         50.90100        55.10033         1.17825
H         48.79937        56.30202         1.02471
H         52.47805        19.23905         0.38588
H         52.56323        54.12672         1.52046
H         54.54331        20.49121         0.67807
H         54.62315        52.91246         1.84410
H         58.18008        22.67715         1.40893
H         56.07316        21.46332         1.26238
H         58.30999        50.74470         2.11906
H         56.26374        51.89488         1.58250
H         59.85543        23.54090         0.94718
H         59.88468        49.75466         2.57780
H         61.97415        24.77626         0.62184
H         62.03488        27.24221         0.74617
H         61.97625        29.09777         1.45605
H         61.97792        31.53297         1.58733
H         62.00435        33.44456         1.29892
H         62.06657        35.86268         0.91613
H         62.12314        37.71930         0.19610
H         62.08578        40.15733         0.42473
H         61.96052        42.16999         0.05399
H         61.92447        44.54777         0.62011
H         62.06028        46.14827         1.75072
H         62.02853        48.56761         2.24518
