         429
 CSIRO Nanostructure Databank - Neutral Graphene Oxide Data Set
C          2.32797         1.73491        -3.66649
C          2.10575         2.72579        -2.68413
C          3.61477         1.47605        -4.07851
C          3.16388         3.50260        -2.23499
C          1.74400         6.37389        -1.51259
C          1.71786         7.74877        -1.71764
C          2.96650         5.69613        -1.51354
C          2.92171         8.45544        -1.85304
C          1.70188        10.73938        -2.19133
C          1.74759        12.09568        -2.26396
C          2.86056         9.94953        -1.73645
C          2.93521        12.87587        -1.95439
C          1.78128        15.09236        -2.25010
C          1.79061        16.47745        -2.16944
C          2.92396        14.32532        -1.91661
C          2.93519        17.17625        -1.72000
C          2.95264        18.61022        -1.60445
C          4.71885         2.22308        -3.55855
C          4.49844         3.37097        -2.71297
C          6.01980         1.74580        -3.76987
C          5.60807         4.21075        -2.31792
C          4.20417         6.33365        -1.75959
C          4.15456         7.75462        -1.83962
C          5.49340         5.60327        -1.85037
C          5.43324         8.50813        -1.92372
C          4.13309        10.72409        -1.59299
C          4.13188        12.19815        -1.71502
C          5.41625        10.01035        -1.85280
C          5.33739        12.88988        -1.35596
C          4.10005        15.01741        -1.48615
C          4.09488        16.43823        -1.36562
C          5.29517        14.30049        -1.17244
C          5.24580        17.11885        -0.84048
C          4.05728        19.27368        -1.14317
C          5.23924        18.56663        -0.73367
C          7.10457         2.36576        -3.12113
C          6.90707         3.65582        -2.50382
C          8.36323         1.72203        -3.07517
C          8.08315         4.32107        -2.02395
C          6.66275         6.33434        -1.59729
C          6.66626         7.79095        -1.50667
C          7.97713         5.70612        -1.58078
C          7.78654         8.47989        -1.10535
C          6.65786        10.76245        -1.49545
C          6.53727        12.18334        -1.07640
C          7.85739         9.95353        -1.12030
C          7.65906        12.85940        -0.55998
C          6.43937        14.98522        -0.66211
C          6.37312        16.39196        -0.45075
C          7.62783        14.25603        -0.35672
C          7.44851        17.06649         0.35602
C          6.38604        19.24588        -0.31670
C          7.55186        18.55610         0.11653
C          9.45622         2.30779        -2.40721
C          9.29796         3.64883        -1.92446
C         10.69735         1.63400        -2.26148
C         10.43242         4.31841        -1.18842
C          9.11312         6.40995        -1.25085
C          9.00979         7.75398        -0.59203
C         10.46921         5.79936        -1.52912
C         10.30018         8.57079        -0.63337
C          8.93776        10.61468        -0.32851
C          8.86496        12.09917        -0.13555
C         10.25483         9.94659        -0.38227
C         10.13963        12.83350        -0.00308
C          8.82797        14.95977         0.07787
C          8.77684        16.35663         0.30773
C         10.06660        14.27284         0.18254
C          9.93354        17.06231         0.69529
C          8.71854        19.21816         0.47085
C          9.91860        18.51958         0.82778
C         11.85522         2.28400        -1.74848
C         11.77465         3.66063        -1.36405
C         13.10236         1.62530        -1.66650
C         12.92247         4.38075        -1.00869
C         11.64184         6.50229        -0.88178
C         11.56461         7.91131        -0.64054
C         12.84377         5.81084        -0.73492
C         12.76119         8.65495        -0.38241
C         11.43682        10.72336        -0.21922
C         11.34605        12.16131        -0.04834
C         12.69477        10.06962        -0.23112
C         12.61039        12.97831        -0.11202
C         11.23136        14.98000         0.59466
C         11.13816        16.35522         0.90830
C         12.50825        14.29686         0.61738
C         12.29570        17.07028         1.46366
C         11.08082        19.21260         1.16937
C         12.31483        18.55457         1.45691
C         14.26046         2.30619        -1.22141
C         14.17744         3.70901        -0.91731
C         15.50314         1.63954        -1.07943
C         15.33671         4.41503        -0.47842
C         14.03872         6.51235        -0.33368
C         14.00995         7.94870        -0.21415
C         15.24093         5.80621        -0.15833
C         15.21177         8.65578         0.02851
C         13.91180        10.83754        -0.01431
C         13.86763        12.19739         0.18462
C         15.23962        10.14236        -0.20823
C         15.06433        12.94152         0.56046
C         13.66041        14.93396         1.03618
C         13.59035        16.32196         1.56672
C         14.94593        14.27277         0.98725
C         14.85795        17.13975         1.47971
C         13.48789        19.23831         1.76187
C         14.75669        18.58081         1.92518
C         16.66533         2.33104        -0.67669
C         16.58135         3.73200        -0.38763
C         17.91627         1.66201        -0.53991
C         17.78790         4.47584        -0.11775
C         16.41394         6.48900         0.48956
C         16.41986         7.99284         0.33297
C         17.72343         5.84796         0.13047
C         17.60155         8.70814         0.64431
C         16.39032        10.84467         0.46702
C         16.30476        12.21925         0.68670
C         17.60074        10.12466         0.71355
C         17.53748        12.97269         0.96927
C         16.07123        14.92664         1.69578
C         15.99711        16.39141         2.13075
C         17.43762        14.40555         1.44222
C         17.21229        17.12576         2.44827
C         15.92645        19.23013         2.26854
C         17.19809        18.53593         2.45865
C         19.09221         2.35554        -0.19901
C         19.04805         3.78082        -0.07569
C         20.32416         1.65603         0.04828
C         20.23641         4.50505         0.28451
C         18.97346         6.67773         0.14264
C         18.83316         7.92023         1.04683
C         20.18676         5.86885         0.49730
C         20.11679         8.72513         1.02746
C         18.77725        10.84047         1.17407
C         18.75236        12.22412         1.30633
C         20.04049        10.13814         1.33139
C         19.81107        12.89895         2.07136
C         18.62734        15.12253         2.02734
C         18.39226        16.33208         2.92747
C         19.91288        14.37443         2.22574
C         19.66410        17.12133         3.04389
C         18.40128        19.22086         2.73995
C         19.64155        18.52598         2.95409
C         21.47629         2.30611         0.48939
C         21.46334         3.76302         0.60141
C         22.71799         1.62565         0.67994
C         22.60199         4.44026         0.93238
C         21.36611         6.57020         1.13955
C         21.32478         8.07374         0.97664
C         22.65574         5.91822         0.61505
C         22.58994         8.82132         1.07627
C         21.17015        10.80236         1.79398
C         21.05465        12.12476         2.40797
C         22.50847        10.24234         1.60623
C         22.26889        12.83221         2.86780
C         21.03362        14.95087         3.01293
C         20.89545        16.37229         3.32324
C         22.27816        14.25891         3.13888
C         22.24855        17.19724         3.28934
C         20.87470        19.25324         2.91530
C         22.12309        18.61426         2.90256
C         23.87052         2.28473         1.13836
C         23.71800         3.71484         1.62194
C         25.10531         1.63185         1.30297
C         25.00781         4.49124         1.72155
C         23.92867         6.62350         1.08162
C         23.88554         8.10386         1.30000
C         25.05258         5.86330         1.67911
C         24.99905         8.77996         2.01170
C         23.61626        10.77677         2.42956
C         23.33356        11.95452         3.15099
C         24.90037        10.13114         2.45178
C         25.14305        13.01791         3.47909
C         23.52434        15.01507         3.19332
C         23.48091        16.44697         2.99514
C         24.86778        14.42794         3.19794
C         24.58344        17.17555         2.52924
C         23.28789        19.28108         2.46835
C         24.51054        18.59560         2.30066
C         26.26889         2.28904         1.79244
C         26.17655         3.72070         2.16746
C         27.49971         1.64906         1.92421
C         27.46307         4.49433         2.40632
C         26.25181         6.62481         2.00562
C         26.21272         8.06443         2.11599
C         27.45717         5.95657         2.25564
C         27.41842         8.77745         2.41900
C         26.13243        10.84893         2.73610
C         26.15703        12.30044         2.89694
C         27.36365        10.18874         2.60159
C         27.29582        13.09216         2.29181
C         25.98024        15.14964         2.82144
C         25.85889        16.47047         2.14338
C         27.33865        14.49420         2.93540
C         27.09658        17.35143         2.39646
C         25.64898        19.29028         1.80264
C         26.91505        18.68470         1.70336
C         28.72213         2.35567         2.19597
C         28.73447         3.77724         2.30393
C         29.95388         1.67265         2.27102
C         29.94168         4.50826         2.35092
C         28.69301         6.66734         2.38459
C         28.66185         8.08213         2.48037
C         29.93989         5.94906         2.39518
C         29.89993         8.83443         2.51367
C         28.64907        10.95174         2.86342
C         28.63102        12.39134         2.40848
C         29.88834        10.20469         2.43889
C         29.80425        13.09012         2.26557
C         28.46009        15.27477         2.29055
C         28.37051        16.61771         2.02556
C         29.76649        14.58165         2.24253
C         29.45818        17.30814         1.37054
C         27.97134        19.28153         1.02703
C         29.21674        18.60802         0.80616
C         31.16646         2.37131         2.42219
C         31.17918         3.80478         2.42004
C         32.39477         1.66681         2.62036
C         32.41031         4.51863         2.51220
C         31.17719         6.64142         2.47169
C         31.18128         8.09683         2.66337
C         32.41465         5.95974         2.51896
C         32.53738         8.87978         2.54118
C         31.08360        10.91403         1.85938
C         31.06814        12.42035         1.99986
C         32.42253        10.30576         2.21531
C         32.16843        13.09578         1.50917
C         30.98877        15.35921         1.80873
C         30.70995        16.66464         1.14770
C         32.32587        14.60174         1.61411
C         31.61443        17.21284         0.22261
C         30.15637        19.16534        -0.06951
C         31.31403        18.44430        -0.44575
C         33.58767         2.34759         2.72039
C         33.61988         3.77223         2.58423
C         34.86539         1.63568         3.10834
C         34.86606         4.47106         2.62420
C         33.67127         6.69186         2.54823
C         33.76032         8.08991         2.29810
C         34.83167         5.85771         2.73499
C         35.11447         8.86121         2.04269
C         33.57765        11.04665         1.73032
C         33.34805        12.36283         1.10048
C         34.91555        10.30890         1.47809
C         34.33232        12.93097         0.28524
C         33.20357        15.17600         0.50266
C         32.87843        16.52716        -0.12166
C         34.13402        14.28045        -0.20873
C         33.54679        16.89215        -1.37943
C         32.13753        18.91312        -1.49766
C         33.19242        18.12980        -2.02365
C         36.04765         2.24825         2.38875
C         36.13346         3.73291         2.36063
C         36.98297         1.45873         1.81736
C         37.20490         4.37152         1.42739
C         36.44522         6.74419         1.66717
C         36.10448         8.07246         1.18760
C         37.02198         5.75596         0.91794
C         36.78765         8.55030         0.11090
C         35.71642        10.85358         0.35247
C         35.48233        12.13588        -0.13974
C         36.88804        10.02596        -0.20297
C         36.36044        12.72825        -1.19688
C         34.87402        14.79170        -1.28244
C         34.58646        16.09196        -1.87245
C         36.00248        14.04890        -1.77243
C         35.29121        16.52544        -3.04974
C         33.91186        18.55757        -3.15794
C         34.95604        17.76880        -3.68961
C         37.98631         1.95553         0.85354
C         38.01785         3.44800         0.54650
C         38.32829         1.00012        -0.22097
C         38.21605         3.82221        -0.88480
C         37.91805         6.19245        -0.22486
C         37.63869         7.62436        -0.69116
C         38.01347         5.15063        -1.31614
C         37.69622         7.94590        -2.16889
C         37.04833        10.28367        -1.69160
C         37.13413        11.69497        -2.09349
C         37.24034         9.28777        -2.62123
C         37.41822        11.95645        -3.51919
C         36.79496        14.66584        -2.73332
C         36.35205        15.74787        -3.56100
C         37.77218        13.23845        -3.95878
C         36.95263        16.04303        -4.83837
C         35.70487        18.17653        -4.81446
C         36.65583        17.32497        -5.41729
C         38.63616         1.42539        -1.46561
C         38.52733         2.82093        -1.84006
C         38.64945         3.17718        -3.20010
C         38.07473         5.48720        -2.68853
C         37.79957         6.84611        -3.15012
C         38.40392         4.47218        -3.61932
C         37.57021         7.14790        -4.47614
C         37.26030         9.55238        -4.05084
C         37.29098        10.93948        -4.50011
C         37.36371         8.48278        -4.92513
C         37.37222        11.31101        -5.86252
C         37.71186        13.65539        -5.29803
C         37.69072        15.09520        -5.63195
C         37.51536        12.64132        -6.25728
C         38.23954        15.50454        -6.84968
C         37.28522        17.71266        -6.63735
C         38.08849        16.82391        -7.32122
O         17.66059        14.12089         0.03142
O         31.90707         8.52128         3.84368
O         30.64193        15.26610         3.22008
O         22.78165         9.95775         0.18218
O         15.70512        15.29269         3.05700
O         38.85408         8.16576        -1.27035
O          8.56047        11.15403         0.97406
O         19.67979        15.22336         1.03450
O         34.76260        11.19754         2.62181
O         36.04847         6.48401         2.98653
O          3.38963        10.31259        -0.39340
O         33.85039        16.40611         0.99263
O         26.61790         4.02023         3.53296
O          7.74363        10.55395        -2.46497
O         21.60753        16.82370         4.51720
O         38.09246        14.19661        -2.98748
O         37.79585        12.51611        -1.07633
O         19.95911        12.24827         3.39157
O          2.89855         4.34927        -1.15478
O          5.50584         9.34114        -3.14581
O         24.18430        12.31199         4.20621
O         37.39607         4.24890         2.85779
O         39.10788         2.80018         1.26110
O         24.41655         7.53128         0.03099
O         12.78640        16.50428         2.75227
O         28.77228        11.05848         4.33113
H         28.87483        10.15125         4.69115
O         27.13074        17.60066         3.82318
H         28.02759        17.91113         4.06499
O         38.07861        10.43528         0.51395
H         38.32176        11.33511         0.18228
O         27.62545        14.34276         4.34031
H         28.48289        13.87451         4.43698
O         19.19826         7.21148        -1.20721
H         19.48424         6.47051        -1.78240
O         23.28311         3.59626         3.02567
H         24.04932         3.27113         3.54645
O         39.24995         6.20377         0.36277
H         39.34797         7.02181         0.89392
O          8.77351         7.48145         0.83430
H          9.35679         6.73591         1.09422
O         27.01524        13.32485         0.87400
H         26.91665        12.45333         0.43460
O          6.99457        16.93890         1.75625
H          7.67543        17.36213         2.32222
O         22.60467         6.00394        -0.83098
H         23.20107         6.74871        -1.09127
O         34.76902         0.23421         2.87386
H         34.58120         0.08876         1.92454
O         30.92946        10.68790         0.38222
H         30.76958         9.72916         0.24418
O         35.71743         8.99574         3.33564
H         35.36480         9.82521         3.73634
O         15.17119        17.18217         0.05036
H         15.95013        17.76475        -0.07588
O         18.09234        15.74758         4.23466
H         17.78649        16.46447         4.82870
O         16.25072         6.24671         1.97218
H         15.37458         6.60815         2.22964
O         12.74525        13.36048        -1.53849
H         13.52123        13.95726        -1.60911
O         10.12776         4.23779         0.24297
H         10.05669         3.28915         0.48043
O         25.79688        16.17976         0.70652
H         26.18730        15.28658         0.55786
O         10.68879         5.89863        -2.96627
H         10.69712         6.84784        -3.21026
O         18.67417         7.45814         2.41855
H         17.80550         6.97407         2.47670
O         21.27355         6.32301         2.56661
H         20.37961         6.64234         2.85242
O         33.08260        14.76845         2.83513
H         33.50694        15.65511         2.79358
O         15.51691        10.27678        -1.65495
H         15.57094        11.23581        -1.85582
H          1.48617         1.14031        -4.04618
H          1.10748         2.87071        -2.25211
H          3.82456         0.64818        -4.77019
H          0.81962         5.81498        -1.32007
H          0.76018         8.28576        -1.69890
H          0.79231        10.21376        -2.51737
H          0.84547        12.62843        -2.59675
H          0.86494        14.59094        -2.59014
H          0.88969        17.04520        -2.44405
H          2.05324        19.17153        -1.89762
H          6.17753         0.82199        -4.34501
H          4.05078        20.37104        -1.06798
H          8.47177         0.72858        -3.53466
H          6.40525        20.34604        -0.35837
H         10.78492         0.59734        -2.61887
H          8.74607        20.31860         0.43778
H         13.17345         0.56382        -1.94549
H         11.05360        20.31284         1.19639
H         15.56461         0.56461        -1.30554
H         13.45527        20.33505         1.85683
H         17.95497         0.57193        -0.68420
H         15.90187        20.30959         2.48348
H         20.33731         0.56363        -0.08653
H         18.40698        20.32047         2.74614
H         22.77693         0.55451         0.43060
H         20.83640        20.33050         2.69380
H         25.18407         0.56761         1.03025
H         23.23231        20.35130         2.22018
H         27.56555         0.57027         1.71626
H         25.52197        20.32885         1.45873
H         29.96794         0.57347         2.22883
H         27.81947        20.26033         0.54573
H         32.37728         0.57318         2.73618
H         29.94621        20.13320        -0.54733
H         35.00930         1.76934         4.21582
H         31.89340        19.87196        -1.97712
H         36.85727         0.36560         1.88841
H         33.65502        19.51492        -3.63386
H         38.30235        -0.07493         0.01350
H         35.49374        19.15304        -5.27503
H         38.89192         0.70176        -2.25380
H         38.91822         2.40399        -3.93404
H         38.50008         4.71417        -4.68592
H         37.59960         6.35718        -5.23805
H         37.32316         8.65387        -6.00944
H         37.27115        10.54219        -6.64042
H         37.47155        12.89700        -7.32546
H         38.80380        14.78086        -7.45453
H         37.09250        18.71728        -7.04010
H         38.56619        17.12009        -8.26529
