         330
 CSIRO Nanostructure Databank - Neutral Graphene Oxide Data Set
C         30.33762        57.20314        -0.18450
C         30.34601        58.56140        -0.50438
C         29.17868        59.23303        -0.99316
C         30.35111        61.35966        -0.92805
C         29.19205        60.59795        -1.19646
C         32.82658        52.99602        -0.12167
C         32.79141        54.40486         0.05997
C         31.58223        55.10644         0.08154
C         32.80392        57.27382         0.18474
C         31.50932        56.54753         0.47959
C         32.77642        58.64034        -0.06513
C         31.54416        59.34212        -0.29859
C         32.72044        61.61190        -0.13641
C         31.52679        60.74511        -0.49160
C         35.25019        48.67441        -0.09854
C         35.23248        50.11236        -0.02630
C         34.03980        50.84473        -0.13302
C         35.26181        52.96259         0.22400
C         34.02782        52.26209        -0.00852
C         35.26071        54.38960         0.33049
C         34.04177        55.10672         0.27532
C         35.27483        57.22025         0.33546
C         34.04710        56.53908         0.27755
C         35.31054        58.66040         0.03919
C         34.03048        59.40005        -0.23746
C         35.23119        61.55470        -0.03371
C         34.04749        60.87719        -0.11852
C         37.69343        44.36717        -0.24493
C         37.65879        45.78979        -0.13674
C         36.45720        46.50285        -0.16752
C         37.70306        48.61747         0.03840
C         36.43155        47.92704        -0.05540
C         37.67903        50.04974         0.40163
C         36.45298        50.82380         0.21356
C         37.73987        52.94601         0.43864
C         36.48215        52.23169         0.32391
C         37.73780        54.38498         0.46357
C         36.50753        55.09167         0.45191
C         37.74698        57.22614         0.53643
C         36.51443        56.52269         0.48101
C         37.76600        58.69220         0.69028
C         36.47851        59.45583         0.48283
C         37.72755        61.54678         0.17776
C         36.51630        60.89745         0.15544
C         40.17429        40.10377        -0.20159
C         40.15567        41.52210        -0.16774
C         38.93882        42.25232        -0.27907
C         40.12129        44.37181         0.37967
C         38.88869        43.64506        -0.12131
C         40.13670        45.83174        -0.00094
C         38.92777        46.51139        -0.10065
C         40.17645        48.70268        -0.39999
C         38.90062        47.95069        -0.10281
C         40.23733        50.10160         0.15341
C         38.99231        50.79770         0.51297
C         40.21273        52.95190         0.35653
C         38.96699        52.26334         0.42245
C         40.21471        54.39479         0.41431
C         38.97283        55.09842         0.47095
C         40.22017        57.24720         0.45749
C         38.97966        56.53061         0.49344
C         40.22946        58.70409         0.41046
C         39.01557        59.42867         0.49303
C         40.21377        61.52719         0.18645
C         38.99147        60.84257         0.31761
C         42.62221        35.84621        -0.49302
C         42.62143        37.19611        -0.22535
C         41.29763        37.88764        -0.00763
C         42.60877        40.07591         0.01175
C         41.36214        39.39128        -0.09637
C         42.60298        41.48998         0.05002
C         41.39972        42.21251        -0.02259
C         42.58636        44.36332        -0.04266
C         41.41191        43.66341         0.06408
C         42.62292        45.80778         0.04784
C         41.40140        46.53582        -0.00424
C         42.67289        48.62999        -0.11880
C         41.44312        47.94206        -0.11674
C         42.69479        50.12958        -0.31132
C         41.41434        50.79876         0.12039
C         42.68658        52.90806         0.39471
C         41.42918        52.23188         0.28259
C         42.72756        54.39188         0.15029
C         41.42641        55.10510         0.40637
C         42.70691        57.20909         0.42093
C         41.43263        56.52011         0.41535
C         42.69539        58.65743         0.12239
C         41.43793        59.40849         0.24602
C         42.69205        61.54502         0.11123
C         41.45588        60.83679         0.17643
C         45.02598        33.02592        -1.01828
C         43.83352        33.72291        -0.91696
C         45.07857        35.78037        -0.42176
C         43.83978        35.10806        -0.61998
C         45.08702        37.20369        -0.19980
C         43.86102        37.91973        -0.11492
C         45.09954        40.04767         0.01479
C         43.86331        39.34488         0.01875
C         45.13824        41.48514         0.02634
C         43.87444        42.26111         0.31608
C         45.10924        44.38243        -0.12270
C         43.84704        43.61918        -0.41488
C         45.12045        45.74485         0.13465
C         43.85631        46.49911         0.09537
C         45.21012        48.61617        -0.06063
C         43.87350        47.90894         0.01870
C         45.09954        50.08042         0.33561
C         43.92820        50.79091         0.26183
C         44.99191        52.92687         1.33635
C         43.87362        52.20967         0.56912
C         45.09590        54.41348         1.02105
C         43.94136        55.10163         0.69771
C         45.11047        57.31574         1.08507
C         43.89527        56.53991         0.64394
C         45.22485        58.70775         0.49442
C         43.98457        59.41400         0.10301
C         45.16232        61.57681         0.17462
C         43.95732        60.89832         0.15189
C         46.25162        33.68149        -0.79776
C         47.60966        35.69039        -0.16840
C         46.28867        35.03996        -0.49565
C         47.57859        37.20019        -0.21284
C         46.33120        37.90556        -0.15115
C         47.57062        40.03729        -0.12371
C         46.33257        39.32745        -0.09035
C         47.58632        41.46087        -0.11846
C         46.33796        42.16643        -0.09733
C         47.62705        44.33298         0.08723
C         46.38317        43.64581        -0.40398
C         47.59619        45.73790         0.37358
C         46.34986        46.43306         0.39528
C         47.57733        48.61224         0.90347
C         46.23069        47.88245         0.83067
C         47.63146        50.07599         0.46937
C         46.32752        50.72958         0.86672
C         47.62003        52.88703         1.44560
C         46.31260        52.15309         1.30074
C         47.60443        54.38332         1.53726
C         46.34549        55.14472         1.22576
C         47.66090        57.30092         1.25931
C         46.37968        56.50954         1.06732
C         47.65885        58.66354         0.58752
C         46.41209        59.38414         0.47181
C         47.55253        61.26648        -0.70405
C         46.49387        60.89833         0.35235
C         48.77164        37.89367        -0.23558
C         50.01615        40.04125        -0.19017
C         48.80132        39.32025        -0.19494
C         50.03420        41.43411        -0.10161
C         48.82236        42.16553        -0.08246
C         50.07384        44.31098         0.21880
C         48.83038        43.61592         0.08159
C         50.06794        45.73042         0.39853
C         48.83879        46.41263         0.57263
C         50.11738        48.62105         0.64465
C         48.86523        47.86061         0.84437
C         50.12961        50.03849         0.78074
C         48.89182        50.79020         0.91952
C         50.13765        52.90403         1.11370
C         48.89646        52.15484         1.16763
C         50.14256        54.30733         1.10854
C         48.94178        55.13358         1.53934
C         50.13000        57.18901         0.64540
C         48.82896        56.43556         0.74760
C         50.10013        58.52501         0.30100
C         48.85052        59.25086         0.18809
C         50.05128        61.30216        -0.46356
C         48.87576        60.61820        -0.33323
C         51.37850        42.11299         0.00540
C         52.50658        44.32371         0.10539
C         51.32041        43.61849         0.10714
C         52.53321        45.75019         0.22073
C         51.30570        46.45822         0.38834
C         52.56779        48.58507         0.45916
C         51.32531        47.88985         0.49147
C         52.60014        50.00246         0.64309
C         51.36744        50.72754         0.80762
C         52.60195        52.83810         0.94390
C         51.38809        52.16727         0.93234
C         52.62368        54.29992         1.02597
C         51.35230        55.04543         0.91611
C         52.59569        57.16849         0.50790
C         51.36221        56.43825         0.68954
C         52.60802        58.52691         0.26001
C         51.34863        59.18153        -0.22652
C         52.49702        61.39468        -0.12232
C         51.34225        60.68645        -0.19340
C         53.75276        46.45169         0.16663
C         55.01649        48.57033         0.21229
C         53.79346        47.86026         0.28660
C         55.05001        49.96844         0.35477
C         53.84303        50.67024         0.63724
C         54.97368        52.81567         0.06717
C         53.93799        52.13045         0.98974
C         55.13220        54.28131         0.37758
C         53.92215        55.01933         0.79722
C         55.14950        57.17273         0.67411
C         53.87913        56.42626         0.26361
C         55.06307        58.62624         0.25280
C         53.85320        59.26454         0.17099
C         55.02295        61.40796        -0.39215
C         53.81942        60.78139         0.26375
C         56.28105        50.69589         0.17228
C         57.47394        52.80912        -0.23837
C         56.29765        52.08001         0.04253
C         57.49209        54.22546        -0.30385
C         56.28643        54.96830         0.06374
C         57.50805        57.08953        -0.20104
C         56.35851        56.42083         0.14457
C         57.58967        58.56977        -0.11276
C         56.32620        59.37562         0.14289
C         57.45120        61.38541        -0.81467
C         56.25684        60.77599        -0.35293
C         58.64896        54.93624        -0.65019
C         59.81376        57.05971        -1.08580
C         58.68315        56.35952        -0.65923
C         59.83077        58.48976        -1.20287
C         58.70963        59.24969        -0.78258
C         59.79703        61.29019        -1.58363
C         58.65425        60.65421        -1.02103
C         60.94532        59.16234        -1.76183
C         60.92394        60.54984        -1.92697
O         47.56443        53.57390         2.76127
O         48.23666        48.30714         2.15725
O         36.92701        59.14886         1.83273
O         57.27152        59.11833         1.23744
O         38.32435        50.27381         1.72075
O         34.89272        58.93396        -1.34477
O         43.41774        58.90838        -1.16754
O         53.49485        54.81312         2.16996
O         42.63358        50.39340        -1.83365
O         46.27332        51.05195         2.29159
O         42.91056        54.47227        -1.32335
H         42.05588        54.22864        -1.73946
O         48.65688        35.17631        -1.00176
H         48.44917        35.40821        -1.92983
O         43.90165        42.57266         1.73910
H         43.78259        41.73782         2.23782
O         47.13818        60.80794        -1.99744
H         46.72300        59.92572        -1.89927
O         44.52933        52.90289         2.71548
H         44.91064        52.09283         3.12938
O         53.95953        61.08125         1.70100
H         54.81190        60.69785         2.00078
O         47.74940        57.61087         2.68026
H         48.27959        56.88991         3.11424
O         31.29884        56.60286         1.95590
H         31.19434        57.54692         2.20010
O         46.50773        43.68016        -1.90521
H         46.63453        44.62141        -2.15654
O         52.21719        41.72253        -1.09735
H         51.78332        42.01252        -1.92571
O         40.00623        44.35525         1.85014
H         39.18306        44.83516         2.08393
O         45.69601        48.48596        -1.41746
H         45.09524        49.01704        -1.99704
O         53.92778        56.26482        -1.18974
H         53.55669        57.07486        -1.60218
O         54.40632        52.74883        -1.27676
H         54.98924        53.26159        -1.87568
O         44.88628        57.59299         2.52138
H         45.78231        57.73259         2.91921
O         40.29658        37.36564        -0.89171
H         40.56032        37.57958        -1.80988
O         32.79441        62.75703        -0.99214
H         32.97654        62.44553        -1.90230
O         54.42165        52.21668         2.35719
H         54.26217        53.14609         2.66024
O         43.95702        50.36642        -2.40444
H         44.26085        51.30396        -2.32570
O         55.25281        57.19796         2.11717
H         56.05108        57.73246         2.33412
O         51.33990        58.85611        -1.68232
H         50.64838        59.42019        -2.09318
O         45.67017        47.88455         2.16226
H         46.42476        47.80035         2.78987
O         47.04394        61.38681         1.60953
H         46.47886        61.05653         2.33874
O         43.78530        43.36494        -1.84558
H         44.71665        43.28253        -2.17208
O         47.68387        50.13483        -0.98213
H         48.48087        49.65115        -1.28522
O         40.13814        48.88783        -1.86552
H         41.00463        49.27465        -2.13787
O         48.48889        56.02614        -0.60805
H         48.65647        56.78245        -1.20898
O         49.23820        55.46996         2.92355
H         48.95331        54.68869         3.45782
H         29.41345        56.62137        -0.32139
H         28.26597        58.64924        -1.17978
H         30.33877        62.44871        -1.07526
H         28.28726        61.10772        -1.55656
H         31.88446        52.45733        -0.30432
H         30.64446        54.56894        -0.12728
H         32.54024        62.01315         0.90244
H         34.28982        48.15042        -0.21684
H         33.08940        50.31532        -0.29648
H         35.21522        62.65572        -0.04432
H         36.75752        43.82882        -0.46135
H         35.50620        45.95623        -0.25569
H         37.76573        62.63094        -0.00896
H         39.22729        39.55154        -0.29238
H         38.00988        41.70284        -0.49824
H         40.20953        62.62153         0.07287
H         41.66239        35.32077        -0.60634
H         40.95073        37.62951         1.03482
H         42.66459        62.64473         0.08455
H         45.01946        31.95293        -1.25575
H         42.87302        33.21014        -1.06919
H         45.16204        62.67769         0.19720
H         47.19503        33.12109        -0.86112
H         47.88039        35.39052         0.88522
H         47.67686        62.37575        -0.76249
H         49.71876        37.33646        -0.28268
H         50.96931        39.49418        -0.22866
H         50.03175        62.36280        -0.76083
H         51.89011        41.72340         0.92887
H         53.45713        43.78164        -0.00409
H         52.46069        62.49429        -0.18568
H         54.69108        45.89430         0.03031
H         55.94948        48.01850         0.02594
H         54.95797        62.44670        -0.75076
H         57.21583        50.12588         0.05682
H         58.41885        52.26146        -0.37826
H         57.42194        62.44422        -1.11230
H         59.55447        54.38329        -0.94196
H         60.70113        56.49679        -1.41180
H         59.77463        62.37553        -1.75687
H         61.82759        58.58242        -2.06763
H         61.79858        61.05829        -2.35666
