         620
 CSIRO Nanostructure Databank - Neutral Graphene Oxide Data Set
C         23.12886        27.15662         0.73671
C         23.10476        28.57514         0.70436
C         23.03543        31.49438         0.32144
C         23.01734        32.88734         0.32145
C         22.99230        35.79619         0.61324
C         22.94103        37.27438         0.57872
C         23.06957        40.11199        -0.35768
C         23.09453        41.43601        -0.79182
C         23.36079        44.09425        -2.13257
C         23.53530        45.26325        -2.79475
C         25.49503        24.30434         0.49521
C         24.33437        24.99021         0.61591
C         25.56058        27.14337         0.46957
C         24.31234        26.43812         0.61298
C         25.49884        28.59088         0.19262
C         24.23815        29.32078         0.42412
C         25.47183        31.51005         0.30554
C         24.24341        30.77412         0.34053
C         25.45413        32.94456         0.27019
C         24.19964        33.64213         0.31677
C         25.39935        35.87746         0.17293
C         24.14728        35.10393         0.40481
C         25.51093        37.29718         0.74176
C         24.19933        38.07430         0.57885
C         25.47132        40.17804         0.04179
C         24.24482        39.46728         0.04645
C         25.45855        41.56994        -0.25265
C         24.27960        42.18066        -0.72745
C         25.46479        44.50292        -0.72248
C         24.25639        43.63993        -1.04319
C         25.48907        45.82968        -1.40685
C         24.59450        46.18623        -2.43809
C         25.82844        48.28288        -2.77682
C         24.76828        47.43457        -3.08786
C         28.05048        22.82196         1.20390
C         28.06560        24.26387         0.85292
C         26.79564        24.99791         0.47017
C         28.02708        27.20722         0.65678
C         26.78003        26.48041         0.53206
C         28.03604        28.62894         0.53200
C         26.80411        29.36380         0.16540
C         27.91987        31.56017         0.45690
C         26.73966        30.83952         0.34008
C         27.92312        32.99985         0.42455
C         26.68722        33.65997         0.23550
C         27.95456        35.86330         0.20809
C         26.69275        35.11998         0.06755
C         27.94584        37.28068         0.10497
C         26.73160        38.02204         0.20769
C         27.93383        40.11450        -0.20530
C         26.73583        39.43958         0.11102
C         28.02647        41.56380        -0.08275
C         26.67847        42.37611        -0.04645
C         28.01154        44.42341        -0.37726
C         26.73852        43.81099        -0.34744
C         28.14907        45.85245        -0.34416
C         26.39435        46.80702        -0.98680
C         27.94990        48.68670        -1.41239
C         26.70572        47.96829        -1.71242
C         27.98863        50.08616        -1.61397
C         30.47247        22.79746         1.96315
C         29.13769        22.16943         1.63370
C         30.43886        24.35060         1.88044
C         29.20239        25.07926         1.39951
C         30.38879        27.28429         1.29641
C         29.22451        26.53824         1.05467
C         30.41651        28.69302         1.08308
C         29.21766        29.36248         0.73222
C         30.43480        31.62242         0.77556
C         29.20669        30.82975         0.48680
C         30.35765        33.09988         1.12186
C         29.14059        33.75353         0.52578
C         30.43493        35.87534         0.28669
C         29.17280        35.15593         0.34330
C         30.42467        37.26952        -0.06030
C         29.19183        37.94015        -0.15607
C         30.46066        40.09603        -0.74735
C         29.13458        39.35034        -0.55197
C         30.46062        41.56252        -0.63835
C         29.26255        42.27807        -0.46104
C         30.46450        44.39841        -0.85620
C         29.25054        43.69440        -0.53104
C         30.46734        45.84923        -1.03400
C         29.23536        46.57016        -0.82928
C         30.39129        48.72589        -1.11065
C         29.15951        48.00432        -1.07577
C         30.38146        50.14749        -1.18379
C         29.15026        50.80900        -1.42522
C         32.57458        20.80902        -0.58963
C         31.44021        21.32677         0.03647
C         32.90761        22.55765         1.46494
C         31.59877        22.18810         1.13382
C         32.94306        24.61551         2.15709
C         31.71914        25.12818         1.84984
C         32.92259        27.36159         1.62026
C         31.62713        26.61375         1.74406
C         32.88599        28.80227         1.30741
C         31.66060        29.43117         1.21090
C         32.89888        31.68559         1.35808
C         31.61955        30.89965         1.30388
C         32.87353        33.12003         0.97251
C         31.67198        33.79993         0.81180
C         32.91328        35.89719         0.32764
C         31.66173        35.19559         0.47138
C         32.91719        37.28438        -0.03068
C         31.68343        37.98212        -0.23223
C         32.94721        40.09010        -0.66120
C         31.71439        39.36423        -0.52405
C         32.91279        41.50277        -0.90011
C         31.69831        42.24796        -0.80026
C         32.89287        44.36102        -1.39973
C         31.66525        43.66978        -0.96485
C         32.87725        45.85357        -1.58124
C         31.63939        46.57943        -1.25638
C         32.85659        48.75095        -1.17297
C         31.65048        48.02219        -1.16112
C         32.85446        50.16688        -0.96103
C         31.61358        50.87243        -1.00681
C         32.79269        52.96550        -0.63058
C         31.62128        52.28361        -0.86307
C         35.01004        19.32292        -1.31673
C         35.07229        20.63071        -0.78853
C         33.87440        21.27876        -0.28818
C         35.27817        23.12748         0.72557
C         34.03408        22.33381         0.65371
C         35.37873        24.40475         1.29240
C         34.29245        25.25741         1.99508
C         35.41685        27.35966         1.24427
C         34.14296        26.56468         1.20250
C         35.37479        28.78858         1.28499
C         34.14037        29.52318         1.30354
C         35.37513        31.66514         1.22829
C         34.15537        30.93020         1.28231
C         35.33978        33.10314         1.07876
C         34.13819        33.80345         0.87128
C         35.37752        35.92434         0.41183
C         34.13579        35.21646         0.56456
C         35.37778        37.26701        -0.01823
C         34.16087        37.97721        -0.21471
C         35.45983        40.05050        -0.68589
C         34.18116        39.37183        -0.55706
C         35.48526        41.47705        -1.11314
C         34.15887        42.21779        -1.24445
C         35.38995        44.40361        -1.15421
C         34.19551        43.68822        -1.21951
C         35.42210        45.85281        -1.24977
C         34.18703        46.58317        -1.59531
C         35.41901        48.77139        -1.07013
C         34.15929        48.08809        -1.42431
C         35.36074        50.18562        -0.74329
C         34.07340        50.87466        -0.72293
C         35.23698        53.01311        -0.20318
C         34.03948        52.28477        -0.52152
C         35.28576        54.41111        -0.13804
C         37.43610        19.20675        -1.46231
C         36.16134        18.60598        -1.59320
C         37.51357        20.56900        -1.05280
C         36.33463        21.26370        -0.60671
C         37.63622        23.30686        -0.12089
C         36.41995        22.56031         0.01633
C         37.78405        24.58530         0.40324
C         36.71719        25.14427         1.31200
C         37.84350        27.38753         1.05102
C         36.61079        26.65979         1.13869
C         37.82981        28.78537         1.25162
C         36.60389        29.51195         1.32851
C         37.85530        31.66170         1.13022
C         36.58395        30.93986         1.31423
C         37.86074        33.14147         0.99375
C         36.59717        33.89675         1.32195
C         37.85414        35.94940         0.65672
C         36.61935        35.27054         0.70709
C         37.90477        37.31241         0.24653
C         36.68661        37.88027        -0.44245
C         37.95321        40.06303        -0.62968
C         36.64722        39.38096        -0.48857
C         37.96650        41.57803        -0.78491
C         36.68410        42.30092        -0.88744
C         37.85069        44.47004        -0.74608
C         36.64276        43.69322        -0.93165
C         37.84445        45.85402        -0.84998
C         36.60970        46.57799        -1.08062
C         37.88470        48.77578        -0.93962
C         36.60603        48.03812        -1.04706
C         37.82963        50.28135        -0.62874
C         36.51528        50.88499        -0.42412
C         37.74485        53.01737         0.19922
C         36.44828        52.23579         0.23787
C         37.71821        54.42084         0.25834
C         36.46900        55.09612         0.12567
C         39.89456        16.36746        -1.96209
C         38.68466        17.09126        -1.93858
C         39.89065        19.23739        -1.94294
C         38.64624        18.47720        -1.78350
C         39.95148        20.63586        -1.50098
C         38.77256        21.26068        -1.10407
C         40.05091        23.47690        -1.04598
C         38.73898        22.71957        -0.91461
C         40.13323        24.79318        -0.38699
C         39.00951        25.34520         0.23683
C         40.29782        27.45014         0.66732
C         39.06225        26.71876         0.69935
C         40.36084        28.80112         1.12182
C         39.11113        29.47386         1.47530
C         40.39323        31.71055         1.32876
C         39.12241        30.98964         1.50510
C         40.36548        33.16183         1.26414
C         39.13558        33.87481         1.15487
C         40.32716        35.99865         0.96424
C         39.10209        35.26758         0.98151
C         40.32805        37.39637         0.71375
C         39.10562        38.04641         0.31617
C         40.33978        40.17423         0.07869
C         39.15682        39.43191        -0.06208
C         40.34728        41.62084        -0.06601
C         39.16568        42.29541        -0.35665
C         40.37139        44.48862        -0.12561
C         39.06886        43.75585        -0.26804
C         40.42455        45.89313        -0.60125
C         39.13738        46.60064        -0.87061
C         40.28885        48.71851        -0.24079
C         39.14621        48.06189        -0.65828
C         40.18716        50.11618         0.24438
C         39.00441        50.92228        -0.01093
C         40.21144        53.01502         0.56366
C         38.98294        52.29639         0.29903
C         40.18401        54.46282         0.57720
C         38.96066        55.16674         0.40533
C         40.16663        57.28501         0.55486
C         38.98389        56.58280         0.40372
C         42.34476        16.28003        -1.58686
C         41.13791        16.99347        -1.86394
C         42.48167        19.15292        -1.69614
C         41.22807        18.44420        -2.02192
C         42.46723        20.54904        -1.60892
C         41.23407        21.31909        -1.49395
C         42.57133        23.42481        -1.30251
C         41.28571        22.69475        -1.27406
C         42.61404        24.90563        -1.00908
C         41.31413        25.67132        -0.74324
C         42.72384        27.50481         0.27146
C         41.47977        26.84839         0.17280
C         42.77750        28.85332         0.73174
C         41.56388        29.53404         1.06984
C         42.86212        31.67243         1.30703
C         41.56786        30.97342         1.26294
C         42.85945        33.19377         1.33102
C         41.57082        33.89236         1.24588
C         42.80050        36.02162         1.05398
C         41.56690        35.30245         1.09780
C         42.79656        37.43664         0.99660
C         41.55077        38.12238         0.76658
C         42.75314        40.25035         0.66325
C         41.54652        39.51842         0.49759
C         42.80595        41.66298         0.43446
C         41.59267        42.34906         0.13256
C         42.85748        44.46888         0.03722
C         41.63435        43.74331        -0.01935
C         42.83368        45.90538        -0.11037
C         41.65882        46.64037        -0.28549
C         42.77005        48.79511         0.13265
C         41.59014        48.06477        -0.14527
C         42.76906        50.18750         0.44743
C         41.48054        50.86853         0.62881
C         42.69272        53.02360         0.71914
C         41.44652        52.33444         0.64096
C         42.64879        54.47210         1.01237
C         41.38883        55.19273         0.75898
C         42.64330        57.33326         0.78153
C         41.39180        56.60182         0.73599
C         43.53935        16.93236        -1.41062
C         44.91373        18.99138        -1.18830
C         43.66590        18.36446        -1.45054
C         45.05463        20.42582        -1.44184
C         43.75559        21.25857        -1.61666
C         45.05514        23.31684        -1.04530
C         43.83416        22.67436        -1.25018
C         45.10161        24.73355        -0.72547
C         43.90923        25.47904        -0.57694
C         45.19535        27.46954         0.05271
C         43.94454        26.81336        -0.09097
C         45.22883        28.86504         0.35917
C         44.02912        29.55707         0.68335
C         45.25276        31.67736         0.58867
C         44.07552        30.96028         0.86178
C         45.11465        33.12050         0.16964
C         44.06269        33.91734         0.89616
C         45.25636        36.07203         0.69699
C         44.04469        35.31259         0.87621
C         45.28959        37.43939         1.02023
C         44.02520        38.15958         1.13454
C         44.99689        40.43645         1.52483
C         43.92534        39.58757         1.12321
C         45.20296        41.72566         1.05595
C         44.03840        42.38571         0.53352
C         45.33898        44.50763         0.44622
C         44.07532        43.79122         0.31150
C         45.35269        45.91134         0.18867
C         44.11619        46.59754        -0.18518
C         45.30654        48.80161         0.34361
C         44.07339        48.14676        -0.07665
C         45.23668        50.19954         0.89162
C         43.95610        50.92855         0.56789
C         45.20063        53.12113         0.41733
C         43.92117        52.34419         0.67827
C         45.22284        54.54587         0.91895
C         43.94079        55.26317         1.12295
C         43.84469        56.71759         0.89695
C         47.27850        18.96314        -0.53529
C         46.07025        18.31599        -0.70686
C         47.42458        20.37751        -0.70052
C         46.26718        21.13756        -1.01485
C         47.53882        23.21658        -0.80105
C         46.28828        22.55112        -0.97811
C         47.58248        24.64159        -0.63911
C         46.37100        25.37022        -0.50802
C         47.65839        27.44773        -0.05935
C         46.41491        26.76550        -0.18040
C         47.68473        28.85735         0.13316
C         46.46089        29.57415         0.30209
C         47.70439        31.72720         0.15359
C         46.46346        30.99580         0.35470
C         47.70654        33.10960         0.06036
C         46.43303        33.85999         0.00158
C         47.78268        36.00061         0.31621
C         46.46359        35.34453         0.22491
C         47.74193        37.46938         0.33118
C         46.57802        38.12781         0.96048
C         47.94988        40.22193         1.23239
C         46.82411        39.36745         1.51663
C         47.85624        41.70235         1.42743
C         46.50679        42.43670         1.25278
C         47.79098        44.55367         0.69034
C         46.54387        43.85391         0.79587
C         47.77280        45.96490         0.46857
C         46.53943        46.65746         0.30194
C         47.75071        48.83510         0.55133
C         46.50574        48.10848         0.36634
C         47.74471        50.25186         0.64688
C         46.50604        50.98204         0.66684
C         47.72844        53.10449         0.74281
C         46.48815        52.36415         0.68243
C         47.66697        54.51088         0.87679
C         46.43788        55.19152         1.01834
C         49.92942        20.33895        -0.40577
C         48.69164        21.05388        -0.61475
C         50.05751        23.14623        -0.98955
C         48.73775        22.45422        -0.74263
C         50.06358        24.59849        -0.59585
C         48.85222        25.31173        -0.49612
C         50.12963        27.38359        -0.13574
C         48.89329        26.71817        -0.22572
C         50.18651        28.80442         0.35845
C         48.91822        29.58138         0.14276
C         50.20680        31.69124         0.06998
C         48.94294        30.97253         0.10932
C         50.22687        33.09532         0.07002
C         48.97262        33.86542        -0.27388
C         50.22586        36.02951         0.28185
C         48.96654        35.32112         0.16814
C         50.29230        37.41705         0.36921
C         49.05649        38.21190         0.31180
C         50.33999        40.33423         0.59852
C         49.09602        39.62141         0.74796
C         50.35521        41.73018         0.70773
C         49.18671        42.48348         1.31691
C         50.24596        44.57401         0.43949
C         49.06164        43.88512         0.74750
C         50.22150        46.00159         0.31550
C         48.99700        46.69989         0.42959
C         50.21807        48.84773         0.50645
C         48.97933        48.13202         0.47639
C         50.21227        50.24593         0.70254
C         48.98493        50.96520         0.71403
C         50.23848        53.09034         0.73914
C         48.97039        52.39585         0.76008
C         51.13809        20.97993        -0.31559
C         52.49179        23.07105        -0.40868
C         51.27122        22.39577        -0.48858
C         52.54112        24.52220        -0.50755
C         51.30564        25.26198        -0.48161
C         52.60660        27.37207        -0.32248
C         51.34523        26.67879        -0.30553
C         52.62434        28.81963        -0.24397
C         51.43489        29.53569        -0.05092
C         52.67114        31.66423        -0.09748
C         51.43785        30.95837        -0.00625
C         52.66655        33.06502         0.16342
C         51.45911        33.77900         0.23404
C         52.75981        36.00510         0.60742
C         51.44880        35.23917         0.51597
C         52.75872        37.45777         0.35863
C         51.53879        38.15052         0.40517
C         52.75996        40.29262         0.20281
C         51.53913        39.58996         0.36344
C         52.75607        41.72258         0.17367
C         51.55141        42.44152         0.42487
C         52.69724        44.55807        -0.06055
C         51.53288        43.87798         0.30529
C         52.60416        46.01185        -0.50748
C         51.43085        46.74085         0.10450
C         52.68335        48.87335        -0.00562
C         51.43500        48.11882         0.23435
C         52.72507        50.33004         0.42516
C         51.49586        50.95478         1.06921
C         51.42059        52.43826         0.83103
C         54.93879        23.00057        -0.33136
C         53.74582        22.37407        -0.20409
C         55.01857        24.43773        -0.64674
C         53.76286        25.21302        -0.53462
C         55.07758        27.35379        -0.44893
C         53.80707        26.64676        -0.47823
C         55.09322        28.79173        -0.43545
C         53.86927        29.52423        -0.38096
C         55.12822        31.64790        -0.56078
C         53.89641        30.94336        -0.33203
C         55.08852        33.09055        -0.46546
C         53.97495        33.74843         0.25015
C         55.19752        36.00270        -0.11034
C         54.03451        35.25481         0.40093
C         55.19988        37.42651        -0.11560
C         53.98229        38.14965         0.11261
C         55.20153        40.26813        -0.21597
C         53.98135        39.56846         0.02322
C         55.19216        41.70459        -0.25679
C         53.97398        42.42853        -0.07399
C         55.16626        44.53852        -0.48234
C         53.94885        43.85462        -0.20666
C         55.11941        45.98838        -0.92553
C         53.91958        46.75187        -0.39704
C         55.18200        48.86368        -0.04723
C         53.95810        48.12242        -0.16010
C         55.18279        50.17934         0.48097
C         54.03387        50.86841         0.78855
C         57.57601        24.49893        -0.10043
C         56.34761        25.19095        -0.53040
C         57.50760        27.36204        -0.07714
C         56.29436        26.65802        -0.35509
C         57.54172        28.78734        -0.14263
C         56.32917        29.50031        -0.41882
C         57.66060        31.56420        -0.60136
C         56.35750        30.92110        -0.61141
C         57.85434        32.88718        -1.05935
C         56.08418        33.91594        -0.95500
C         57.58236        35.93624        -0.78204
C         56.30166        35.29272        -0.59680
C         57.60768        37.36845        -0.70276
C         56.40142        38.11147        -0.44222
C         57.63493        40.25111        -0.64755
C         56.40636        39.54342        -0.43910
C         57.63906        41.68114        -0.62632
C         56.40848        42.40812        -0.46525
C         57.65586        44.54332        -0.64202
C         56.38867        43.83535        -0.55658
C         57.68346        45.95966        -0.59190
C         56.44164        46.73549        -0.76330
C         57.75206        48.75490         0.08994
C         56.46664        48.20486        -0.37851
C         58.66756        25.19650         0.29243
C         59.86195        27.35008         0.58281
C         58.69085        26.64340         0.26833
C         59.89679        28.74158         0.51675
C         58.76133        29.48106         0.13520
C         59.95074        31.71451         0.21320
C         58.80847        30.92167        -0.05572
C         59.97437        33.09372        -0.00348
C         58.90390        33.73685        -0.66463
C         60.00697        35.93269        -0.98952
C         58.81277        35.19994        -0.86315
C         60.01815        37.32270        -1.03788
C         58.83640        38.07294        -0.87256
C         60.04262        40.25755        -1.01600
C         58.84656        39.52751        -0.84533
C         60.05451        41.64203        -0.96617
C         58.86935        42.38093        -0.76252
C         60.10249        44.54632        -0.58528
C         58.88259        43.82926        -0.67081
C         60.11350        45.91606        -0.40804
C         58.90176        46.64543        -0.39907
C         58.89938        48.04715        -0.03900
O         30.13607        31.26635        -0.60001
O         38.06004        49.78915        -1.99400
O         27.76392        24.50658        -0.55080
O         44.21589        47.46042        -1.35925
O         25.94441        35.63589        -1.14474
O         32.73897        44.96563        -2.74529
O         37.87967        32.30952        -0.20795
O         32.31870        27.16723         2.93751
O         40.57245        18.97687        -3.20827
O         27.08590        46.57557         0.21366
O         26.17316        28.92954        -1.07951
O         44.59233        20.87859        -2.75311
O         34.27388        47.46385        -2.75999
O         43.06931        32.40772         2.57160
O         42.63558        24.44610        -2.40169
O         39.08180        30.23365         2.74817
O         54.35004        34.36050         1.52904
O         52.05267        35.59722         1.81415
O         46.33039        34.77407        -1.16762
O         23.35767        37.97087         1.79556
O         40.64110        50.23316         1.64516
O         48.24715        38.05773        -0.92056
O         34.85572        41.66162        -2.42217
O         27.41690        42.03489         1.16233
O         29.67218        39.61772        -1.90052
O         56.91524        33.40254        -1.96559
O         39.50604        44.29836         1.05022
O         45.90093        39.87394         2.43093
O         32.11049        31.40190         2.59641
O         24.31783        44.42146         0.19931
O         38.18317        40.68040        -1.94062
O         29.44446        24.85756         2.83950
O         56.55587        47.77124        -1.80026
O         39.06633        23.44790        -2.14912
O         52.54782        49.97375        -0.97514
O         47.10612        42.19129         2.58054
O         55.82818        24.74226        -1.83664
O         43.23522        54.79584         2.33395
O         33.07588        23.30879         2.63680
O         39.99180        46.11472        -1.98765
O         34.75963        25.59720         3.32900
H         34.40260        24.92614         3.94907
O         36.86053        37.46893        -1.85776
H         36.20415        37.96442        -2.39361
O         37.26571        24.96876         2.66679
H         36.57126        25.31261         3.28342
O         36.22232        51.94813         1.68210
H         36.18344        52.81325         2.14393
O         54.90795        45.89284        -2.38333
H         55.26862        46.73391        -2.75751
O         50.19533        23.15178        -2.46413
H         50.18145        22.21661        -2.76033
O         30.72747        22.47852         3.34899
H         30.18629        23.09715         3.88652
O         49.62328        42.69569         2.69992
H         48.80216        42.82727         3.23028
O         48.98502        33.95766        -1.74461
H         48.12370        34.37004        -1.99833
O         36.67036        34.09345         2.78180
H         35.86181        34.57365         3.06003
O         51.69029        50.75928         2.51198
H         50.94182        51.19314         2.97365
O         45.17553        53.28145        -1.06178
H         46.03975        53.66462        -1.32665
O         52.26796        45.94209        -1.93489
H         53.11976        45.77666        -2.41719
O         44.51996        32.98967        -1.17050
H         44.82744        33.77638        -1.68388
O         25.75548        37.12304         2.16286
H         24.91701        37.36665         2.62591
O         33.90361        26.16170        -0.17758
H         34.07206        26.92870        -0.76416
O         50.28802        28.68213         1.83543
H         51.13102        28.21916         2.03014
O         40.91618        26.27868        -2.01532
H         41.16373        25.63055        -2.71852
O         45.16445        50.02592         2.36137
H         45.98940        49.57619         2.64424
O         30.14673        33.19899         2.56361
H         30.88712        32.69984         2.99418
H         22.18432        26.61463         0.88651
H         22.14307        29.07485         0.88510
H         22.07678        30.95897         0.31498
H         22.04209        33.39233         0.32831
H         22.03495        35.27479         0.75656
H         22.01382        37.69582         0.13394
H         22.11020        39.57885        -0.34500
H         22.16024        41.91103        -1.11894
H         22.58166        43.39809        -2.47670
H         22.86536        45.53034        -3.62510
H         25.47950        23.20837         0.42215
H         23.37494        24.45452         0.66303
H         25.99133        49.19218        -3.37248
H         24.07665        47.70898        -3.89704
H         27.12469        22.25768         1.01865
H         27.05851        50.61143        -1.87255
H         29.06296        21.09287         1.85168
H         29.11820        51.90160        -1.52574
H         32.44355        20.05026        -1.37256
H         30.43744        21.01158        -0.28458
H         32.74843        54.05320        -0.49027
H         30.67991        52.84692        -0.90187
H         34.03519        18.83596        -1.45292
H         34.38365        55.00676        -0.33424
H         36.07408        17.57306        -1.95492
H         36.43144        56.19192         0.16449
H         39.84979        15.26894        -1.93287
H         37.74980        16.51467        -1.90260
H         40.16035        58.38412         0.53274
H         38.05386        57.15011         0.26884
H         42.30569        15.18281        -1.52339
H         42.60007        58.42357         0.63961
H         44.44007        16.33133        -1.22658
H         44.76932        57.30580         0.80751
H         48.14683        18.36690        -0.22380
H         46.02396        17.23675        -0.50575
H         48.58996        55.09652         0.97353
H         46.47077        56.26309         1.26359
H         49.90132        19.24916        -0.27293
H         50.24657        54.18231         0.61446
H         52.02885        20.37815        -0.08624
H         52.36087        53.00841         0.80693
H         55.86856        22.41983        -0.25759
H         53.73272        21.29444        -0.00100
H         56.14436        50.66386         0.69799
H         54.09369        51.81812         1.33797
H         57.61230        23.40187        -0.14638
H         57.79263        49.77395         0.49711
H         59.58341        24.66756         0.59517
H         60.76680        26.79395         0.86711
H         60.83677        29.26013         0.74914
H         60.83453        31.24765         0.66912
H         60.84713        33.67409         0.32782
H         60.96073        35.39195        -1.06717
H         60.98323        37.82911        -1.17016
H         60.99233        39.73413        -1.18667
H         61.01228        42.16072        -1.10330
H         61.05909        44.00815        -0.60090
H         61.06494        46.45009        -0.27456
H         59.85960        48.50188         0.24644
