         598
 CSIRO Nanostructure Databank - Neutral Graphene Oxide Data Set
C         23.08327        69.51428        -1.35395
C         23.08607        70.85925        -1.80694
C         21.92417        71.46310        -2.36189
C         23.11053        73.55831        -2.68503
C         21.94921        72.79066        -2.78677
C         25.33594        65.60363         0.73915
C         25.31787        66.97064         0.27238
C         24.21062        67.57464        -0.27313
C         25.39682        69.73122        -0.64582
C         24.22115        68.94615        -0.75683
C         25.45227        71.04914        -1.15207
C         24.28354        71.63394        -1.71003
C         25.49440        73.75649        -2.05116
C         24.30343        73.00033        -2.15267
C         27.86377        61.44834         1.59518
C         27.73473        62.84853         1.35512
C         26.52893        63.53200         1.40875
C         27.85869        65.49346         0.72207
C         26.49993        64.92033         1.03330
C         27.86140        66.99914         0.57209
C         26.56993        67.75207         0.46528
C         27.86442        69.73508        -0.49195
C         26.57621        69.25058         0.16248
C         27.90188        71.18548        -0.79588
C         26.68483        71.81111        -1.13100
C         27.92260        73.89101        -1.56276
C         26.69838        73.17803        -1.57387
C         30.35973        57.20369         1.18261
C         30.34180        58.57429         1.26396
C         29.11999        59.28988         1.80073
C         30.26475        61.44366         1.08388
C         29.06624        60.76646         1.46100
C         30.21614        62.86888         0.74248
C         28.92728        63.64995         0.90557
C         30.30155        65.77466         1.41323
C         29.02603        65.01824         1.56185
C         30.31719        67.14867         0.86680
C         29.15508        67.71079         0.41568
C         30.39827        69.82289        -0.20088
C         29.16185        69.03239        -0.23372
C         30.37250        71.21138        -0.52724
C         29.13042        71.87238        -0.85601
C         30.37465        73.97599        -1.21305
C         29.13993        73.27007        -1.20089
C         32.85632        52.92307         0.55149
C         32.65916        54.32416         0.22343
C         31.53967        55.09301         0.75901
C         32.73497        57.22762         0.42330
C         31.52987        56.47624         0.75234
C         32.74180        58.66175         0.65562
C         31.54202        59.32753         1.00676
C         32.76251        61.47243         1.08069
C         31.51519        60.76107         1.04858
C         32.78558        62.87500         1.21942
C         31.55659        63.61707         0.96395
C         32.77567        65.71659         1.28886
C         31.56353        65.03816         1.27754
C         32.78472        67.13133         0.96195
C         31.60379        67.79045         0.63509
C         32.82215        69.86212         0.06078
C         31.61499        69.15913         0.13844
C         32.79951        71.31841        -0.04823
C         31.56151        71.97750        -0.45804
C         32.83754        74.05915        -0.94909
C         31.59060        73.35726        -0.85197
C         35.39486        48.76325         0.49570
C         35.36066        50.15488         0.29695
C         34.13446        50.85902         0.42947
C         35.27054        53.00036        -0.06932
C         34.06594        52.26121         0.27971
C         35.23748        54.40561        -0.19718
C         33.93797        55.12245        -0.19265
C         35.12088        57.32775        -0.27641
C         33.89690        56.57061         0.03669
C         35.19888        58.78946         0.11719
C         33.96165        59.39730         0.63018
C         35.26611        61.41838         1.17381
C         34.00097        60.75483         0.97341
C         35.22614        62.79873         1.70095
C         33.99089        63.59125         1.48127
C         35.25732        65.76610         1.65654
C         34.01098        64.98859         1.42383
C         35.34570        67.14072         1.10256
C         34.08854        67.70906         0.58298
C         35.36525        69.89133         0.18344
C         34.10284        69.16035         0.11376
C         35.35977        71.24945        -0.45964
C         34.10490        72.06393        -0.17274
C         35.32375        74.08997        -0.85835
C         34.08255        73.45222        -0.70619
C         37.78339        44.39337         0.20489
C         37.78645        45.82403         0.19389
C         36.62704        46.57427         0.45180
C         37.90365        48.77339         0.29514
C         36.66284        48.03714         0.82418
C         37.76420        50.13102        -0.34640
C         36.54498        50.90043        -0.03181
C         37.71482        53.02459        -0.56895
C         36.51490        52.30116        -0.25080
C         37.69238        54.43191        -0.49095
C         36.44583        55.11705        -0.36077
C         37.68397        57.35838        -0.38398
C         36.39313        56.58352        -0.52297
C         37.68050        58.71506         0.21188
C         36.50938        59.40934         0.44777
C         37.74227        61.45911         1.26655
C         36.49135        60.75553         1.01650
C         37.77866        62.81397         1.54477
C         36.54170        63.53140         1.90979
C         37.83419        65.78350         1.77627
C         36.53784        65.03832         1.95280
C         37.81846        67.17022         1.25019
C         36.54601        67.82274         0.97119
C         37.77291        69.94999         0.54947
C         36.56567        69.22896         0.52591
C         37.73408        71.45979         0.56659
C         36.56689        72.06858        -0.15265
C         37.77259        74.16436        -0.39889
C         36.54985        73.44270        -0.45989
C         40.40320        40.24701         0.66801
C         40.19045        41.48274        -0.00110
C         39.03438        42.23358         0.23043
C         40.15565        44.33300        -0.38577
C         38.95077        43.64346        -0.03826
C         40.18874        45.74075        -0.31740
C         39.04606        46.48931        -0.01862
C         40.25502        48.61099        -0.76508
C         39.11067        47.97147        -0.03466
C         40.27079        50.07121        -1.09654
C         38.94817        50.81448        -0.97586
C         40.26435        52.98359        -0.65620
C         38.95592        52.33481        -1.17204
C         40.18763        54.50968        -0.89227
C         38.93916        55.20126        -0.54749
C         40.14096        57.40366        -0.52697
C         38.93159        56.57026        -0.36464
C         40.24284        58.67950         0.20251
C         38.97833        59.25121         0.70212
C         40.30992        61.36938         1.18435
C         39.00801        60.68019         1.23383
C         40.36111        62.76647         1.68569
C         39.06971        63.51155         1.82345
C         40.34350        65.69152         1.22154
C         39.13202        65.02063         1.77606
C         40.29213        67.10346         0.98594
C         39.03218        67.81499         1.04348
C         40.27364        69.94539         0.41812
C         39.04780        69.32245         1.04738
C         40.21670        71.37224         0.15000
C         39.04293        72.10080         0.16378
C         40.20779        74.24031        -0.32317
C         39.01846        73.52327        -0.15204
C         43.07185        36.18210         1.42712
C         42.92543        37.43961         0.84453
C         41.78685        38.25593         1.11802
C         42.28166        39.71115        -0.86493
C         41.53137        39.44631         0.42324
C         42.52932        41.24341        -1.15940
C         41.25941        42.04399        -0.87425
C         42.61103        44.23777        -1.06478
C         41.30700        43.57559        -0.91038
C         42.65765        45.61493        -0.88522
C         41.49569        46.41427        -0.46069
C         42.72986        48.58820        -1.16795
C         41.55479        47.92047        -0.56778
C         42.80970        50.04720        -1.12137
C         41.57390        50.79974        -1.04611
C         42.85249        52.82452        -0.84886
C         41.57381        52.21095        -0.99579
C         43.09608        54.22564        -1.12250
C         41.19499        55.30554        -1.36078
C         42.72105        57.35440        -0.76769
C         41.35535        56.75639        -1.07643
C         42.72883        58.67301        -0.05844
C         41.46194        59.32592         0.32956
C         42.72874        61.42258         0.86048
C         41.46679        60.70175         0.82559
C         42.80438        62.78533         1.06287
C         41.66240        63.57216         1.64944
C         42.74830        65.65980         0.72782
C         41.54050        64.98150         1.08445
C         42.71071        67.06990         0.48614
C         41.48499        67.79081         0.61240
C         42.66693        69.85759        -0.24065
C         41.44315        69.21497         0.30768
C         42.68570        71.36043        -0.45852
C         41.50542        72.09939         0.06918
C         42.76323        74.29104        -0.43428
C         41.50082        73.63410        -0.09363
C         45.43231        33.27217         1.44439
C         44.28819        34.05371         1.65361
C         45.29340        35.89728         0.36971
C         44.19934        35.36080         1.13244
C         45.20372        37.18667        -0.23568
C         43.91770        37.88024        -0.13410
C         45.34561        39.94202        -1.48751
C         43.53889        38.90779        -0.97098
C         45.21873        41.32687        -1.30574
C         43.85865        41.97398        -1.42740
C         45.18036        44.22329        -1.21549
C         43.86033        43.49251        -1.40148
C         45.12349        45.67516        -0.83996
C         43.84056        46.34815        -1.16609
C         45.68440        48.71705        -1.15172
C         43.76431        47.71311        -1.49412
C         45.49735        50.19106        -1.04717
C         44.05597        50.70806        -0.85069
C         45.11021        52.77945         0.25543
C         44.03032        52.08992        -0.58682
C         45.12660        54.36420         0.28991
C         44.05823        55.01486        -0.58628
C         45.21509        57.18907        -0.14784
C         44.02780        56.50959        -0.69955
C         45.19645        58.50929         0.23668
C         43.93951        59.22989         0.35658
C         45.26273        61.35133         1.15241
C         43.94647        60.59939         0.93114
C         45.24202        62.79389         0.86444
C         44.04745        63.50510         0.88743
C         45.18184        65.65174         0.33229
C         43.99864        64.94520         0.65525
C         45.16311        67.04203         0.10275
C         43.94000        67.76258         0.16118
C         45.18821        69.87421        -0.26323
C         43.94892        69.14667        -0.14330
C         45.11441        71.34467         0.19201
C         44.01083        72.09385        -0.66109
C         45.18422        74.29956        -0.30207
C         43.97787        73.59538        -0.38878
C         46.52904        33.79856         0.77780
C         47.66151        35.73129        -0.25566
C         46.49868        35.12733         0.26572
C         47.65184        37.08789        -0.63234
C         46.39516        37.79071        -0.74017
C         47.68992        39.90682        -0.94717
C         46.47719        39.18870        -1.09807
C         47.64854        41.31437        -0.90734
C         46.42752        42.03673        -1.02115
C         47.59687        44.18591        -0.62540
C         46.44439        43.49189        -0.91912
C         47.63180        45.62248        -0.24782
C         46.36097        46.41386        -0.41431
C         47.66345        48.51357         0.26000
C         46.49762        47.90061        -0.44268
C         47.69396        50.01852         0.30867
C         46.52206        50.80065        -0.12835
C         47.74322        52.83459         0.37194
C         46.49317        52.14972         0.10377
C         47.75980        54.26150         0.19791
C         46.48025        54.93213        -0.12092
C         47.75469        57.12831        -0.04542
C         46.48219        56.43705        -0.25441
C         47.76893        58.49478         0.20627
C         46.49469        59.14046         0.62382
C         47.84384        61.32288         0.92069
C         46.54927        60.57509         1.03294
C         47.80811        62.81565         0.73749
C         46.48853        63.45478         0.44118
C         47.76591        65.70645         0.33937
C         46.46522        64.92365         0.15750
C         47.69612        67.00716        -0.44920
C         46.37397        67.72768        -0.42093
C         47.66902        69.93102        -0.64779
C         46.38452        69.20222        -0.43521
C         47.68063        71.42759        -0.44326
C         46.45810        72.11362         0.07256
C         47.74877        74.26294        -0.43255
C         46.46963        73.63745        -0.12195
C         48.88549        37.77727        -0.81940
C         50.17197        39.88777        -0.91707
C         48.94651        39.17981        -0.87141
C         50.21019        41.30609        -0.87222
C         48.92030        42.00679        -0.60625
C         50.13344        44.27037        -0.74438
C         48.88880        43.48683        -0.43048
C         50.23194        45.67071        -0.29790
C         48.94568        46.33949         0.02059
C         50.15098        48.51587         0.15704
C         48.95233        47.81753         0.10957
C         50.18781        49.95925         0.33080
C         48.99073        50.70606         0.36818
C         50.25612        52.86379         0.63342
C         48.96299        52.12556         0.40895
C         50.24306        54.26676         0.09252
C         48.96873        54.95729         0.02751
C         50.18131        57.09542        -0.22936
C         48.96630        56.38766        -0.12603
C         50.21525        58.49981        -0.10851
C         49.00850        59.19928         0.22624
C         50.24664        61.31348         0.29276
C         49.05462        60.59602         0.49706
C         50.22930        62.75223         0.19392
C         49.02545        63.50468         0.25408
C         50.18258        65.53000        -0.44653
C         49.00758        64.89482         0.02058
C         50.27214        67.00752        -0.71050
C         48.98649        67.77095        -0.66126
C         50.13811        69.94728        -0.23707
C         48.97626        69.25118        -0.49263
C         50.14192        71.39431        -0.07866
C         48.96199        72.11607        -0.18376
C         50.18240        74.25304        -0.06908
C         48.94732        73.57190        -0.19277
C         51.39175        42.03034        -0.93619
C         52.65052        44.27378        -0.87210
C         51.41396        43.50205        -0.99479
C         52.68480        45.63427        -0.61471
C         51.44148        46.34707        -0.21962
C         52.54547        48.49594         0.43542
C         51.40448        47.77314         0.12331
C         52.68168        49.91507         0.23561
C         51.45132        50.66917         0.26696
C         52.67133        52.75522        -0.11448
C         51.47411        52.07481         0.21834
C         52.69354        54.16677        -0.28944
C         51.42496        54.89049        -0.25442
C         52.69142        57.10423        -0.67437
C         51.39333        56.33528        -0.57220
C         52.70090        58.53064        -0.31566
C         51.47276        59.21140        -0.15031
C         52.71125        61.33894         0.03613
C         51.47292        60.62560         0.02851
C         52.72294        62.76351         0.02223
C         51.43199        63.41133        -0.15664
C         53.06911        65.82818        -0.26235
C         51.29538        64.71062        -0.66940
C         52.77573        67.10121         0.07503
C         51.61404        67.83286        -0.60291
C         52.68673        69.96970         0.29986
C         51.36525        69.14635         0.20706
C         52.49636        71.42073         0.68625
C         51.36928        72.09927         0.28740
C         52.58124        74.25483         0.39232
C         51.36906        73.56246         0.24020
C         53.94778        46.30920        -0.90172
C         55.32237        48.45572        -0.65311
C         54.35326        47.48160        -0.29530
C         55.19371        49.83572        -0.33418
C         53.91911        50.51824        -0.07879
C         55.20988        52.75025        -0.52254
C         53.86716        51.95369        -0.41116
C         55.17004        54.19717        -0.33969
C         53.93009        54.86548        -0.45183
C         55.23597        57.07519        -0.26078
C         53.96729        56.32890        -0.63458
C         55.15998        58.50220         0.10375
C         53.93417        59.20516        -0.03479
C         55.13260        61.31020         0.51362
C         53.93365        60.62137         0.15067
C         55.10966        62.75389         0.63025
C         53.92557        63.46470         0.31771
C         55.14092        65.63439         0.95434
C         53.84148        64.93611         0.67961
C         55.08346        67.03998         1.10476
C         53.77564        67.74292         0.98050
C         55.04954        69.93123         1.29490
C         53.75467        69.23701         1.12425
C         55.00559        71.40132         1.41550
C         53.70801        72.15982         1.12831
C         55.00248        74.25793         0.65857
C         53.79302        73.59563         0.74198
C         56.39616        50.60457        -0.36173
C         57.61493        52.72570         0.06172
C         56.44710        52.00376        -0.24856
C         57.61468        54.13795         0.19235
C         56.38568        54.88911        -0.01767
C         57.55892        56.98548         0.59567
C         56.39924        56.28219         0.14771
C         57.49479        58.35693         0.87827
C         56.30461        59.15023         0.63875
C         57.35330        61.26155         1.68119
C         56.28507        60.56078         0.85262
C         57.49339        62.74343         1.36009
C         56.31444        63.45589         1.02638
C         57.52516        65.57632         1.49887
C         56.33233        64.88989         1.11625
C         57.46077        67.03220         1.72225
C         56.24353        67.77837         1.40346
C         57.52650        69.93689         1.31090
C         56.24894        69.22611         1.41048
C         57.53872        71.35192         1.09515
C         56.31299        72.12598         1.36034
C         57.49800        74.14619         0.32989
C         56.29368        73.63396         0.95287
C         58.79338        54.84332         0.50834
C         60.00830        56.95181         0.91782
C         58.80838        56.24490         0.71091
C         60.00852        58.34439         1.18106
C         58.70226        59.00348         1.41714
C         59.94712        61.20462         1.67060
C         58.67353        60.48411         1.74171
C         59.93470        62.65717         1.86829
C         58.68706        63.43867         1.64453
C         60.02297        65.61376         1.99574
C         58.71861        64.86465         1.68544
C         60.03651        67.06354         1.51187
C         58.80964        67.82909         1.70089
C         59.97187        69.88039         0.91937
C         58.74968        69.23598         1.29364
C         59.94312        71.28081         0.57351
C         58.72501        72.01491         0.71337
C         59.85261        74.00547        -0.24927
C         58.68912        73.41567         0.30611
C         61.17480        59.09322         1.30315
C         62.39423        61.23513         1.30437
C         61.16400        60.51634         1.48880
C         62.45366        62.62551         1.28015
C         61.25855        63.38199         1.71193
C         62.39623        65.50980         0.89247
C         61.16644        64.82896         1.37301
C         62.48780        66.98367         1.10897
C         61.20413        67.74008         1.17697
C         62.43718        69.88561         0.61624
C         61.18973        69.15409         0.91780
C         62.34056        71.20975        -0.02642
C         61.10887        71.91297         0.05603
C         62.20856        73.88539        -0.93519
C         61.05523        73.28758        -0.38213
C         63.61365        63.33504         0.86157
C         64.80215        65.40992         0.27073
C         63.65268        64.73248         0.71720
C         64.84621        66.82055         0.10081
C         63.77278        67.64822         0.71173
C         64.77775        69.68481        -0.43877
C         63.76476        69.12451         0.45921
C         64.68130        71.03327        -0.85184
C         63.47755        71.79570        -0.61620
C         64.52192        73.73606        -1.74065
C         63.40582        73.15652        -1.09900
C         65.87591        67.45230        -0.58494
C         66.91212        69.44461        -1.60553
C         65.86653        68.86127        -0.87615
C         66.88949        70.82133        -1.94729
C         65.75002        71.61153        -1.60128
C         66.78538        73.54549        -2.71501
C         65.68729        72.98301        -2.01384
C         67.95942        71.42483        -2.66016
C         67.90288        72.76956        -3.02303
O         39.71362        62.91678         3.00346
O         43.01601        41.47017        -2.49940
O         47.57606        70.86757        -1.78989
O         32.99135        54.64561        -1.17991
O         54.88149        56.79452        -1.67300
O         56.47114        73.16525         2.34165
O         27.15817        67.50289         1.78928
O         44.62661        44.01553        -2.54874
O         49.59140        67.37155        -1.95962
O         46.46400        63.96964        -0.94668
O         35.82903        62.92800         3.03224
O         44.72028        71.28932         1.49368
O         28.42002        64.48254        -0.30668
O         34.15585        68.02162        -0.84738
O         37.95147        50.15645        -1.82084
O         40.82503        42.74694        -2.04368
O         30.99789        63.29411        -0.38896
O         28.44440        68.93659        -1.55806
O         53.66077        47.80955         0.89282
O         34.95238        58.38281        -1.27725
O         38.98396        59.52706         2.14520
O         61.33147        65.10956        -0.05297
O         54.48899        52.28098        -1.69325
O         35.75691        65.61188         3.03871
O         40.53816        57.59357        -1.96177
O         54.12107        71.85451         2.50061
O         48.94169        42.62974         0.75044
O         38.65992        65.66916         2.99510
O         47.42158        49.18607         1.52558
O         43.60503        57.19661        -1.91728
O         53.33314        68.38390         2.22388
O         51.92730        56.75117        -1.87796
O         46.50158        55.55010        -1.43725
O         60.75287        63.06370         3.02825
O         38.98631        48.67414         1.27773
O         44.50556        60.83643         2.27493
O         41.43586        39.20536        -1.86086
O         44.89337        48.18378        -2.17793
O         52.40424        65.23860        -1.34082
O         29.60022        65.51554         2.76310
O         45.39111        45.93025         0.59109
O         58.60617        59.47499         2.82140
O         47.99171        62.24820         2.06651
O         46.88119        67.00496        -1.63481
O         37.05440        57.14131        -1.69859
O         40.14575        49.03579        -2.14879
O         33.52805        71.95503         1.13814
O         44.67897        52.34406         1.52708
O         46.61091        59.52166         2.04548
O         63.49170        67.31401         2.11271
O         44.30621        39.20904        -2.08572
O         58.11688        67.49308         2.95148
O         46.68382        72.92472         1.20657
O         41.69779        72.92705         1.21983
O         42.24143        54.76375        -2.08732
O         48.17043        45.73766         1.12528
O         50.56516        44.04235        -2.12226
O         42.37930        70.49530        -1.58093
O         41.78357        47.28105         0.71407
O         63.47768        69.88880         1.66031
O         37.55584        71.82120         1.98587
H         38.23540        71.29816         2.48457
O         60.21306        65.66010         3.42199
H         59.49161        66.21968         3.79218
O         56.80100        61.27056         3.03351
H         57.16460        60.47268         3.48801
O         27.91748        58.63178         1.39680
H         27.86246        58.66330         0.41979
O         53.31945        70.13375        -1.00522
H         52.90165        69.51566        -1.66027
O         42.08818        63.79963         3.02277
H         41.29260        63.67438         3.59543
O         51.98535        68.12239        -1.96233
H         51.15510        68.06844        -2.50199
O         44.39777        71.98194        -2.03415
H         43.87751        71.23910        -2.42746
O         35.31040        71.03051        -1.91972
H         36.00826        70.38256        -2.15359
O         53.05855        64.97193         1.92312
H         53.61223        64.59602         2.64034
O         50.98179        68.68581         1.52106
H         51.12366        69.40086         2.17593
O         40.17752        52.83641         0.79067
H         41.04530        53.06077         1.18975
O         26.49289        69.95699         1.42978
H         26.77843        69.32466         2.13129
O         36.73455        48.03520         2.29135
H         37.69128        48.12887         2.52256
O         38.89796        52.57439        -2.58834
H         38.28127        51.91403        -2.97579
O         45.84893        50.71451        -2.37720
H         45.37774        50.15718        -3.03635
O         39.16267        69.67978         2.48973
H         38.64370        69.02201         3.00303
O         50.37847        53.02054         2.10145
H         50.15011        52.15867         2.51173
O         44.91628        54.77487         1.65004
H         44.71240        53.91658         2.13272
O         47.84843        66.10971         1.73082
H         48.08700        65.33200         2.27906
H         23.11003        74.60489        -3.02173
H         25.49794        74.80289        -2.39143
H         27.93049        74.94661        -1.87324
H         30.38030        75.03205        -1.52224
H         32.81436        75.10671        -1.28608
H         35.36353        75.13397        -1.20283
H         37.77276        75.23831        -0.63771
H         40.17118        75.25723        -0.74098
H         42.78215        75.39237        -0.44577
H         45.16555        75.39961        -0.35515
H         47.77810        75.33567        -0.67701
H         50.20093        75.35079        -0.13709
H         52.60156        75.34211         0.22519
H         55.01441        75.28821         0.27047
H         57.45090        75.11314        -0.19291
H         59.81220        75.05450        -0.57733
H         62.16274        74.93111        -1.27360
H         64.46300        74.78114        -2.07979
H         66.74332        74.60043        -3.02126
H         22.16368        68.91766        -1.44766
H         21.00013        70.87370        -2.44783
H         21.03919        73.24129        -3.20726
H         24.37284        65.07802         0.83118
H         23.28197        66.99598        -0.38961
H         26.96785        60.88098         1.88819
H         25.59689        63.01114         1.67210
H         29.45154        56.63630         1.43471
H         29.15634        59.20957         2.92584
H         32.03129        52.36389         1.01743
H         30.68610        54.54551         1.18652
H         34.44699        48.23976         0.69243
H         33.22218        50.30132         0.68544
H         36.84834        43.86817         0.45000
H         35.68214        46.03912         0.63248
H         39.68834        39.94934         1.45182
H         38.19866        41.76011         0.76778
H         42.29616        35.80157         2.10833
H         41.07802        37.91970         1.89096
H         45.47198        32.24917         1.84349
H         43.44552        33.64869         2.23194
H         47.44465        33.20200         0.65769
H         48.61157        35.17678        -0.24517
H         49.82117        37.19905        -0.78092
H         51.11486        39.32573        -0.99329
H         52.35187        41.49531        -0.99803
H         53.59986        43.74813        -1.05712
H         54.55577        45.89237        -1.71871
H         56.21566        48.14734        -1.21810
H         57.34720        50.05034        -0.37031
H         58.55219        52.17674         0.23831
H         59.73684        54.28547         0.60592
H         60.96767        56.41543         0.86989
H         62.14670        58.59380         1.17485
H         63.29383        60.65674         1.04594
H         64.52192        62.75643         0.63394
H         65.68520        64.82017        -0.01881
H         66.69976        66.84632        -0.99059
H         67.76986        68.82745        -1.91046
H         68.83709        70.81808        -2.92484
H         68.74321        73.22073        -3.56900
