         669
 CSIRO Nanostructure Databank - Neutral Graphene Oxide Data Set
C          6.11548        31.73928        -0.70209
C          5.99969        33.07808        -0.91354
C          8.39420        27.35263        -0.00661
C          8.35418        28.84156         0.26442
C          7.27836        29.56594        -0.19303
C          8.22656        31.65705         0.94505
C          7.03607        30.96731         0.17574
C          8.27499        33.11012         0.98831
C          6.69254        34.11131        -0.15354
C          8.14626        36.06750         0.38604
C          7.20930        35.29916        -0.55105
C          8.36322        37.46770        -0.10963
C         10.90979        23.06784         0.51055
C         10.86171        24.41750         0.75031
C          9.55477        25.13745         0.49148
C         10.73900        27.32566         0.90896
C          9.63569        26.64674         0.50325
C         10.73497        28.79031         0.96639
C          9.50948        29.49405         0.83617
C         10.68180        31.63958         1.11140
C          9.49389        30.91333         1.00486
C         10.68953        33.10134         0.83358
C          9.42625        33.87745         0.79337
C         10.69319        36.01633         0.71150
C          9.45534        35.29457         0.61190
C         10.74736        37.43011         0.48377
C          9.56268        38.14456         0.04298
C         10.81879        40.27845         0.01930
C          9.64682        39.54776        -0.22465
C         10.88208        41.68595        -0.28013
C         13.34964        18.80326         0.52414
C         13.35092        20.16352         0.66937
C         12.14845        20.94725         0.45592
C         13.27354        22.97282         1.38961
C         12.10435        22.28973         0.72103
C         13.26244        24.47829         1.23863
C         12.06642        25.14207         1.13172
C         13.22582        27.33955         0.93119
C         11.97913        26.62845         1.45155
C         13.20541        28.82901         1.19106
C         11.94299        29.51097         1.15483
C         13.13983        31.66065         1.40427
C         11.93069        30.94552         1.23034
C         13.08481        33.13723         1.74829
C         11.94642        33.86903         1.06862
C         13.09797        36.06694         1.30716
C         11.90263        35.34991         1.10233
C         13.14224        37.45821         1.08401
C         11.96632        38.15104         0.64553
C         13.16777        40.33953         0.83446
C         11.98235        39.57359         0.47162
C         13.22686        41.86916         0.50892
C         12.04120        42.45459        -0.15401
C         13.35858        44.51128        -0.59329
C         12.13760        43.79941        -0.59493
C         13.41553        45.87754        -0.87022
C         15.81179        14.49025        -0.24794
C         15.73288        15.91851        -0.05538
C         14.60179        16.55557         0.38202
C         15.84720        18.75005         0.70901
C         14.54842        17.97716         0.92150
C         15.82491        20.23663         0.73262
C         14.59859        20.91197         0.89806
C         15.81347        23.03429         1.13562
C         14.59308        22.30820         1.08644
C         15.82703        24.47560         1.26514
C         14.53544        25.18750         1.64408
C         15.68087        27.35057         1.20549
C         14.52447        26.65848         1.29339
C         15.69107        28.82343         1.51604
C         14.38614        29.54028         1.28255
C         15.63053        31.66805         1.50210
C         14.38474        30.97760         1.41131
C         15.61146        33.12266         1.93399
C         14.38677        33.84497         1.35610
C         15.63382        36.05851         1.27181
C         14.35794        35.34657         1.77963
C         15.64927        37.53013         1.72241
C         14.44618        38.16257         1.05155
C         15.71733        40.42609         1.13138
C         14.48286        39.65925         0.86844
C         15.69501        41.81525         0.84625
C         14.54038        42.46152         0.35114
C         15.72781        44.66229         0.22462
C         14.66970        43.75851        -0.42561
C         15.85502        45.98463        -0.47970
C         14.65158        46.62048        -0.89136
C         15.91942        48.67888        -1.32736
C         14.69536        47.97218        -1.29157
C         15.97026        50.07507        -1.62156
C         18.28009        10.28446        -1.15384
C         18.29817        11.77654        -0.86960
C         17.09409        12.42543        -0.68116
C         18.26479        14.60729        -0.59303
C         17.01349        13.85058        -0.52997
C         18.24566        15.97421        -0.47266
C         16.93080        16.71590        -0.52050
C         18.18974        18.89358        -0.33363
C         17.03918        18.06882         0.13984
C         18.21049        20.35006        -0.00990
C         17.01624        20.98490         0.59779
C         18.37727        23.06607         0.97377
C         17.03223        22.36343         0.85473
C         18.29036        24.57321         0.90275
C         17.02190        25.18856         1.13008
C         18.21448        27.44173         1.19612
C         16.95548        26.65612         0.78903
C         18.13705        28.85505         0.59947
C         16.89914        29.59661         1.07316
C         18.13915        31.71338         1.30054
C         16.85593        30.96640         1.27843
C         18.12951        33.18505         1.54255
C         16.86433        33.92721         1.66480
C         18.16228        36.05436         1.89381
C         16.88054        35.28441         1.61622
C         18.15441        37.53268         1.47038
C         16.94742        38.24982         1.39673
C         18.20359        40.34391         1.14069
C         16.95396        39.67491         1.25540
C         18.26087        41.81287         1.10263
C         16.95771        42.59241         0.95478
C         18.25966        44.57696         0.19019
C         17.03529        43.94677         0.39336
C         18.32987        45.94483        -0.30081
C         17.10641        46.63385        -0.59647
C         18.38648        48.68287        -1.14782
C         17.14089        47.99551        -1.04118
C         18.41843        50.06663        -1.47685
C         17.17623        50.76194        -1.66910
C         18.36242        52.89238        -2.01674
C         17.20767        52.20274        -1.83497
C         18.28531        54.40931        -2.05515
C         20.80388         6.09286        -0.10324
C         20.79072         7.47572        -0.40918
C         19.57685         8.19970        -0.60036
C         20.80723        10.28119        -0.87865
C         19.58001         9.56591        -0.85787
C         20.82478        11.75987        -1.21745
C         19.53540        12.50704        -0.89697
C         20.74208        14.69392        -0.95789
C         19.53417        13.90130        -0.75930
C         20.69941        16.09209        -1.04946
C         19.54271        16.72325        -0.26939
C         20.66411        18.92133        -0.40031
C         19.47802        18.20947        -0.43202
C         20.67745        20.37553        -0.24466
C         19.50305        21.04698        -0.00962
C         20.72319        23.24220         0.07238
C         19.39230        22.54398        -0.05914
C         20.71835        24.62841         0.34567
C         19.48458        25.31251         0.67975
C         20.67553        27.50110         0.62882
C         19.50279        26.75261         0.77758
C         20.65948        28.97548         0.62586
C         19.43315        29.61461         0.76467
C         20.55772        31.87057         0.56863
C         19.28140        31.07962         0.52527
C         20.32414        33.20911         0.40488
C         19.28715        33.97276         1.06281
C         20.67283        36.02903         1.43804
C         19.38045        35.31050         1.35166
C         20.66768        37.53099         1.52491
C         19.38212        38.22745         1.33414
C         20.68951        40.30493         0.88116
C         19.41951        39.62525         1.12475
C         20.71876        41.67838         0.62347
C         19.50540        42.47808         0.68499
C         20.81152        44.51614         0.18948
C         19.48286        43.83176         0.36745
C         20.82246        45.91144        -0.39014
C         19.58752        46.59977        -0.53439
C         20.84247        48.69232        -1.01774
C         19.60857        47.98369        -0.92361
C         20.87029        50.08197        -1.38298
C         19.66809        50.75025        -1.61861
C         20.92982        52.91968        -2.26396
C         19.64995        52.15385        -2.12085
C         20.80516        54.41819        -2.25649
C         19.61120        55.11714        -1.90841
C         20.91512        57.20963        -1.74698
C         19.67619        56.48710        -1.70438
C         20.98013        58.58585        -1.47741
C         23.25458         3.36547         0.67302
C         22.04251         4.02612         0.46909
C         23.26789         6.09886        -0.01557
C         22.01785         5.40400         0.12311
C         23.28367         7.47557        -0.35539
C         22.02760         8.18477        -0.50089
C         23.32628        10.28899        -0.45457
C         22.01126         9.58666        -0.69639
C         23.32005        11.76931        -0.74668
C         21.99597        12.47912        -0.53870
C         23.29600        14.64338        -0.73283
C         22.02228        13.93096        -0.99670
C         23.42305        15.99726        -0.05012
C         21.79629        17.00253        -1.38379
C         23.17600        18.93760        -0.27881
C         21.89096        18.26527        -0.75855
C         23.17310        20.43122        -0.49485
C         21.94040        21.11292        -0.32434
C         23.22365        23.20658         0.08182
C         21.91055        22.52164        -0.16329
C         23.13221        24.70289        -0.04847
C         21.95848        25.37880         0.22330
C         23.11199        27.58112         0.30857
C         21.93902        26.83972         0.38133
C         23.10993        29.03590         0.30312
C         21.88766        29.72595         0.40011
C         23.11884        31.97311         0.30352
C         21.81300        31.21261         0.00393
C         23.27198        33.34054         0.55014
C         22.17426        34.28722         0.45377
C         23.18827        36.04221         1.85296
C         21.98870        35.39103         1.21827
C         23.18183        37.51813         1.45452
C         21.94353        38.21147         1.21328
C         23.16232        40.11654         0.25359
C         21.91712        39.53761         0.79854
C         23.18287        41.56045        -0.15977
C         21.89595        42.28105         0.02424
C         23.54014        44.59025        -0.63984
C         21.72572        43.53944        -0.48401
C         23.36118        45.95162        -0.33215
C         22.05707        46.61246        -0.50873
C         23.25031        48.81315        -0.39240
C         22.05226        48.00926        -0.71914
C         23.37184        50.19585        -0.87223
C         22.20955        50.74688        -1.70612
C         23.54526        52.87007        -1.76194
C         22.14526        52.28403        -1.54990
C         23.78868        54.10371        -2.36963
C         21.90592        55.19133        -2.58300
C         23.40095        57.16378        -2.13096
C         22.11381        56.53630        -2.17501
C         23.42221        58.54961        -1.86214
C         22.20285        59.27138        -1.58964
C         23.43521        61.38481        -1.48360
C         22.24092        60.68616        -1.40864
C         24.47176         4.03088         0.52813
C         25.72982         6.09952        -0.02132
C         24.50415         5.40630         0.17100
C         25.74953         7.43819        -0.42459
C         24.52635         8.12037        -0.58495
C         25.81387        10.25849        -0.89212
C         24.50190         9.53644        -1.08774
C         25.78027        11.72259        -1.23567
C         24.50426        12.42439        -0.80102
C         25.80360        14.67999        -0.61943
C         24.54909        13.87793        -0.50670
C         25.75018        16.15138        -0.81840
C         24.55133        16.85116        -0.52857
C         25.64624        18.97370        -0.98994
C         24.46773        18.24257        -0.66400
C         25.62697        20.41552        -0.98436
C         24.40357        21.11957        -0.67803
C         25.58410        23.26484        -0.87383
C         24.41990        22.54897        -0.59593
C         25.42642        24.76156        -1.11205
C         24.46067        25.39994        -0.08438
C         25.66582        27.59583         0.12309
C         24.33948        26.93460        -0.31000
C         25.61794        29.10056         0.03227
C         24.36763        29.74501         0.12743
C         25.72126        31.94324         0.32851
C         24.36492        31.21659         0.08687
C         25.70717        33.29413         0.90466
C         24.49525        33.95003         1.00261
C         25.69857        35.98184         2.02035
C         24.48464        35.44032         1.24839
C         25.63963        37.51303         1.85287
C         24.40503        38.13901         1.29802
C         25.77309        40.17664         0.55485
C         24.48999        39.41567         0.57478
C         25.77436        41.60320         0.28619
C         24.52871        42.31824        -0.13814
C         25.71244        44.52795         0.35101
C         24.58741        43.81180        -0.11076
C         25.73220        45.93511         0.24659
C         24.53443        46.64434         0.02365
C         25.78431        48.84454         0.07299
C         24.50313        48.11651         0.09695
C         25.75840        50.25715        -0.12840
C         24.53581        50.90212        -0.61948
C         25.83084        53.03318        -0.93157
C         24.63752        52.29663        -1.06699
C         25.91322        54.38339        -1.34658
C         24.83099        54.97082        -2.02692
C         25.94059        57.19846        -1.87504
C         24.75137        56.44076        -2.44866
C         25.89436        58.60485        -1.83853
C         24.66362        59.29894        -1.84104
C         24.64112        60.69947        -1.68231
C         27.08798         8.10402        -0.71969
C         28.26432        10.35405        -0.96074
C         27.03279         9.61793        -0.83462
C         28.30778        11.76208        -1.04607
C         27.01412        12.48042        -0.73561
C         28.24280        14.71050        -1.20783
C         26.95782        13.93683        -1.25368
C         28.15591        16.08688        -1.36907
C         26.91742        16.84126        -1.17394
C         28.04933        19.02673        -1.56313
C         26.87120        18.27635        -1.25381
C         28.05360        20.43590        -1.50382
C         26.83066        21.13915        -1.20324
C         28.03030        23.30263        -1.35191
C         26.81678        22.58275        -1.16459
C         28.02885        24.78655        -1.34616
C         26.74543        25.54730        -1.13984
C         28.15862        27.57949        -0.32532
C         26.83938        26.96559        -0.63185
C         28.13840        29.03428        -0.05188
C         26.86443        29.75992         0.18648
C         28.13401        31.79706         0.87705
C         26.94575        31.14830         0.49383
C         28.17219        33.21502         1.11623
C         26.95538        33.95404         1.19422
C         28.17652        36.04178         1.57123
C         26.97754        35.34665         1.50737
C         28.22989        37.49369         2.02177
C         26.92548        38.26616         1.75336
C         28.21986        40.15676         0.72695
C         26.93199        39.54050         0.99331
C         28.21465        41.69785         0.51191
C         26.91969        42.35142         0.54254
C         28.17214        44.52765         0.97931
C         26.84781        43.78227         1.02076
C         28.05876        46.03525         1.20793
C         27.06394        46.64895         0.21508
C         28.19997        48.88277         0.44063
C         26.97762        48.15890         0.31888
C         28.19538        50.29163         0.20876
C         26.98497        50.96069        -0.06864
C         28.31423        52.97617        -0.79994
C         27.01149        52.46651        -0.17757
C         28.31816        54.48292        -0.85004
C         27.15648        55.14295        -1.17552
C         27.08933        56.55335        -1.41795
C         29.47798        12.53156        -1.14068
C         30.68983        14.69692        -1.25808
C         29.49316        13.97444        -1.22720
C         30.70440        16.08223        -1.72471
C         29.32781        16.80620        -1.86390
C         30.58342        19.05090        -2.00083
C         29.26807        18.29665        -1.97663
C         30.52186        20.50252        -1.76478
C         29.30318        21.17663        -1.65565
C         30.50163        23.34774        -1.40897
C         29.27426        22.62681        -1.52234
C         30.53866        24.67135        -0.92648
C         29.32698        25.49899        -0.97859
C         30.59976        27.38547         0.13051
C         29.34009        26.86391        -0.38329
C         30.69686        28.87665         0.36021
C         29.43052        29.70890         0.28676
C         30.64376        31.77221         1.15578
C         29.36199        30.96642         1.15808
C         30.65051        33.18367         1.32171
C         29.40452        33.91167         1.32688
C         30.64183        36.03977         1.65507
C         29.41380        35.32974         1.48309
C         30.69289        37.45963         1.60197
C         29.47714        38.18345         1.52031
C         30.69168        40.26994         1.04070
C         29.48184        39.53385         1.15272
C         30.65262        41.70818         0.93967
C         29.45833        42.41295         0.83034
C         30.65201        44.60285         0.80617
C         29.36969        43.86320         0.95428
C         30.69383        46.05510         1.11012
C         29.38535        46.79307         1.17835
C         30.66284        48.89451         0.73548
C         29.40971        48.21269         0.79291
C         30.66367        50.28434         0.49652
C         29.46919        51.00849         0.22050
C         29.51563        52.34924        -0.15485
C         31.87885        16.94527        -1.57154
C         33.04698        19.08546        -1.53111
C         31.85259        18.31962        -1.72332
C         33.07631        20.47881        -1.61974
C         31.80820        21.20247        -1.88535
C         33.05458        23.36863        -1.29436
C         31.79727        22.70641        -1.68072
C         33.02008        24.68314        -0.86612
C         31.75564        25.30057        -0.60146
C         33.03454        26.94499         0.62797
C         31.73758        26.56812         0.07677
C         33.10801        29.00028         1.39522
C         31.87965        29.63001         0.89609
C         33.10746        31.75125         1.24500
C         31.84879        31.08668         1.15879
C         33.12111        33.15979         1.42631
C         31.88506        33.84801         1.51308
C         33.20370        36.03110         1.83801
C         31.87869        35.28067         1.83472
C         33.18037        37.48194         1.55750
C         31.94304        38.16896         1.46582
C         33.18660        40.25356         1.07103
C         31.94539        39.57520         1.21410
C         33.15966        41.69614         0.61726
C         31.95694        42.42575         1.21716
C         33.22540        44.62634         0.90040
C         31.94930        43.87026         0.76158
C         33.18253        46.03137         0.85547
C         31.96491        46.78018         0.86523
C         31.90748        48.16869         0.80861
C         34.26955        21.21930        -1.43438
C         35.49061        23.29891        -0.89875
C         34.30182        22.62744        -1.29024
C         35.52958        24.68416        -0.61073
C         34.28846        25.51781        -0.91459
C         35.47684        27.56871         0.09806
C         34.23707        26.67156         0.05802
C         35.57373        28.71248         1.20364
C         34.32729        29.57996         1.23609
C         35.57147        31.70367         1.17429
C         34.34653        31.02727         1.15853
C         35.59976        33.13308         1.25888
C         34.38450        33.85890         1.43047
C         35.65455        35.95886         1.43896
C         34.43216        35.27182         1.53055
C         35.66471        37.42718         1.61325
C         34.39820        38.17011         1.44054
C         35.67659        40.29141         1.03322
C         34.40701        39.57245         1.20064
C         35.63698        41.72878         0.93602
C         34.44788        42.45189         0.88512
C         34.41942        43.87221         0.94588
C         36.67453        25.32202        -0.12839
C         37.94095        27.37615         0.38803
C         36.75076        26.73533         0.14820
C         38.00854        28.87983         0.32527
C         36.79341        29.56139         0.90180
C         38.05091        31.67969         0.92465
C         36.80086        30.94128         1.00666
C         38.06392        33.07558         1.01373
C         36.84029        33.82938         1.17253
C         38.11985        35.96754         1.06825
C         36.86714        35.24584         1.25143
C         38.14245        37.35244         0.99373
C         36.97477        38.17338         1.34214
C         36.87568        39.59838         0.99160
C         39.28360        29.55722         0.73525
C         40.53749        31.67765         0.94988
C         39.29773        30.92778         0.87369
C         40.54510        33.03802         0.94270
C         39.31619        33.80377         0.95720
C         39.32378        35.18807         0.93146
O         20.71105        36.74260         2.77861
O         25.29824        14.26189         0.68898
O         33.00669        27.68329         1.83039
O         22.89475        54.56370        -3.34094
O         12.97093        41.34474         1.85471
O         23.55592        48.67646         1.06388
O         31.87160        22.11010        -3.02831
O         23.82594        39.27986        -0.73286
O         26.64177        26.69065        -2.05536
O         14.68750        38.73784        -0.26806
O         25.14430        31.81677        -1.00494
O         29.86003        18.73082        -3.23838
O          7.04969        31.13633         1.62453
O         16.89277        18.14388         1.58357
O         32.58074        35.62575         3.09531
O         17.61415        42.45146         2.26051
O         28.82670        25.42720        -2.37300
O         30.12844        46.44291         2.41475
O         17.87316        19.85584        -1.39731
O         21.16586        33.93648        -0.44419
O         22.86373        16.13147         1.03945
O          7.01996        33.69728         1.17481
O         22.88457        14.31344        -2.12241
O         18.47972        32.23492         2.63028
O         31.71460        29.41430        -0.57463
O         28.34438        40.75497        -0.59325
O         36.48732        37.89335         2.72211
O         26.10942        38.30940         2.98979
O         20.38939        52.25639        -3.43705
O         31.26598        44.21847        -0.47919
O         28.93995        29.82209        -1.05831
O         22.57758        44.00806        -1.47816
O         23.93695        41.78818        -1.37164
O         29.97042        16.20237        -3.00260
O         11.63926        33.38030        -0.28895
O         15.15965        43.43752        -1.75617
H         14.44903        42.97025        -2.24277
O         26.96601        52.99068         1.18008
H         26.18413        52.60718         1.62892
O         21.71516        12.49558         0.88841
H         22.40438        13.03539         1.33319
O         13.15005        27.18356        -0.52351
H         14.01570        27.44639        -0.90522
O         27.50162        46.22721         2.53626
H         28.26554        46.23587         3.15869
O         28.42293        37.43727         3.46176
H         27.52492        37.32872         3.85842
O         35.77317        28.07249         2.48355
H         34.91648        27.65886         2.73253
O         22.65140        16.78944        -2.41617
H         22.57465        15.86359        -2.76202
O         15.83531        28.81151         3.01420
H         15.83485        29.74848         3.31053
O         21.38036        44.65515         1.54856
H         20.75037        45.18765         2.07963
O         21.64874        31.20698        -1.45991
H         21.82591        32.12238        -1.77118
O         26.95241        12.45417         0.70754
H         27.71135        12.96193         1.06082
O         28.05990         7.71492         0.25881
H         27.79034         8.09402         1.12036
O         17.18676         9.65499        -0.48103
H         17.33415         9.73525         0.48342
O         14.53787        25.15839         3.11554
H         14.18218        24.27471         3.38127
O         28.30877        52.50458        -2.19116
H         29.11635        52.84603        -2.62895
O         15.22373        44.93741         1.56859
H         15.93302        45.38111         2.07871
O          9.01151        24.68632        -0.75995
H          9.66856        24.87570        -1.46068
O          7.50610        36.23183         1.68675
H          7.19307        35.34000         1.97114
O         11.96325        26.77537         2.89026
H         11.17110        26.32089         3.24220
O         24.89661        56.49295        -3.89317
H         24.19891        55.90834        -4.26738
O          7.21845        26.75048         0.56277
H          7.10954        27.09151         1.47384
O         15.50284        33.06395         3.39459
H         16.40865        32.90766         3.74400
O         21.85023        52.56324        -0.15035
H         22.51682        52.09920         0.40136
O         18.90980        22.71968         2.28302
H         18.33579        23.12722         2.96494
O         23.53179        10.21493         0.98748
H         22.80955        10.73589         1.40683
O         22.50610        50.44298        -3.09009
H         21.79349        50.86336        -3.63029
O         18.26668        27.52527         2.63463
H         17.40887        27.90084         2.96409
O         13.07992        22.77298         2.85138
H         12.13728        22.96329         3.04670
O         32.96242        41.68129        -0.81976
H         33.77018        41.31812        -1.23777
O         19.90212        16.51705         1.14257
H         20.10909        15.56594         1.26909
O         25.09102        25.09605         1.19497
H         24.67902        25.65628         1.88740
O         29.22516        30.43683         2.52378
H         29.16487        31.19998         3.13737
O         32.16245        42.43588         2.65319
H         31.36648        42.80818         3.08632
O         15.48054        37.66770         3.14327
H         16.13589        37.08241         3.58520
O         18.00933        28.72332        -0.84886
H         18.09243        29.64236        -1.21360
O         26.47444        43.69101         2.43723
H         26.56345        44.60901         2.79929
O         14.37800        35.41710         3.21263
H         13.60639        34.90130         3.54751
O         16.82418        26.60662        -0.66842
H         17.71925        26.49816        -1.05642
O         18.20712        36.07798         3.35461
H         19.10245        36.42076         3.60007
O         24.10275        27.22697        -1.69709
H         24.91211        27.00239        -2.22226
O         23.10306        18.82787         1.18242
H         22.92309        17.87945         1.41220
O         23.48819        22.96091         1.51689
H         24.30829        23.47085         1.72919
O         14.50940        33.72754        -0.08162
H         13.61329        33.65101        -0.48306
O         12.83852        33.23923         3.17471
H         13.62546        32.85232         3.63081
O         14.41024        17.78480         2.36536
H         15.31855        17.60619         2.70290
O         35.41069        28.23816        -1.19201
H         36.32160        28.57796        -1.41020
O         24.82469        24.84909        -2.42108
H         25.51457        24.67055        -3.09365
O         27.64560        46.37780        -1.09490
H         27.03815        46.71691        -1.78516
O         21.05884        11.87498        -2.64624
H         20.37915        11.34811        -3.11472
O         18.88303        31.21138        -0.90454
H         19.71790        31.07624        -1.42631
O         25.93595        27.36249         1.54190
H         25.56977        28.11403         2.05328
O         16.69213        17.01239        -1.93466
H         16.62465        16.15832        -2.41120
O         24.22846         9.49269        -2.53092
H         24.84090         8.84188        -2.93440
O         15.62502        36.12412        -0.17019
H         15.38977        35.22477        -0.51085
O         17.33345        54.88014        -1.09499
H         17.65364        54.64234        -0.20102
O         37.93766        29.16807        -1.16252
H         38.03142        30.14067        -1.26841
O         25.71241        35.63767         3.41245
H         24.82786        35.85886         3.79445
O         25.77618        11.71994        -2.68982
H         25.01771        11.15034        -2.97017
O         24.65450        35.99642        -0.08788
H         23.98708        35.59940        -0.68703
O         18.88336        22.86008        -1.38986
H         18.46340        22.05512        -1.76515
O         34.39756        25.98216        -2.28320
H         34.77397        26.89808        -2.24321
O         23.15241        35.87553         3.28420
H         22.27520        36.22889         3.57566
O         26.62532        13.97343        -2.66730
H         27.32246        13.49661        -3.16460
H          5.55138        31.09401        -1.39700
H          5.35688        33.41131        -1.74339
H          8.32910        27.17283        -1.11598
H          6.52937        29.06298        -0.82463
H          7.03015        35.67391        -1.56879
H          7.47044        38.02731        -0.42771
H         10.01348        22.55890         0.12436
H          8.80962        24.83064         1.27896
H          8.74766        40.06924        -0.58519
H          9.98809        42.15273        -0.72121
H         12.40579        18.28303         0.29922
H         11.25163        20.43497         0.07398
H         11.21988        44.31797        -0.91368
H         12.48131        46.41719        -1.09060
H         14.90806        13.88445        -0.07896
H         13.71436        15.94049         0.60723
H         13.76427        48.49025        -1.56488
H         15.02888        50.61949        -1.78796
H         18.07620        10.16236        -2.25783
H         16.16697        11.83318        -0.65744
H         16.25898        52.75545        -1.75661
H         17.87891        54.70580        -3.06352
H         19.85105         5.54929        -0.01822
H         18.61589         7.66667        -0.54798
H         18.75035        57.04234        -1.49565
H         20.06997        59.13559        -1.19660
H         23.24985         2.30050         0.94554
H         21.09346         3.48157         0.57680
H         23.44317        62.47647        -1.35803
H         21.29796        61.21914        -1.21996
H         25.41736         3.49192         0.68297
H         26.68105         5.56767         0.12700
H         26.81587        59.16443        -1.61287
H         25.59127        61.25258        -1.69222
H         27.46007         7.69838        -1.70356
H         29.20248         9.78006        -1.00855
H         29.27064        55.03233        -0.78666
H         27.96218        57.16971        -1.14941
H         30.44732        12.01391        -1.21736
H         31.64540        14.19582        -1.04199
H         31.62520        50.81716         0.44666
H         30.48791        52.86515        -0.20559
H         32.82424        16.46837        -1.26947
H         33.98155        18.54283        -1.32262
H         34.13101        46.58980         0.82621
H         32.84130        48.74259         0.70937
H         35.20897        20.66013        -1.30408
H         36.40631        22.70249        -0.75672
H         36.59264        42.27264         0.99883
H         35.37749        44.40766         1.04149
H         37.60101        24.73386        -0.01860
H         38.88257        26.80505         0.40876
H         39.07678        37.86302         0.71307
H         37.80308        40.13858         0.74612
H         40.23019        28.99709         0.69180
H         41.48399        31.11731         0.95280
H         41.49892        33.58606         0.94816
H         40.28431        35.72064         0.85813
