         424
 CSIRO Nanostructure Databank - Neutral Graphene Oxide Data Set
C          1.38626         2.02376        -0.46357
C          1.31934         3.42346        -0.28482
C          2.58670         1.35187        -0.36376
C          2.45924         4.17056         0.01752
C          1.21172         6.33736         0.14367
C          1.18942         7.71601         0.22661
C          2.43198         5.61636         0.17615
C          2.38390         8.46996         0.32340
C          1.15235        10.64832         0.33333
C          1.14603        12.03202         0.30860
C          2.36463         9.91498         0.33168
C          2.34626        12.77548         0.24872
C          1.16209        14.98346         0.38170
C          1.19278        16.37829         0.38893
C          2.33876        14.22531         0.20625
C          2.38566        17.07652         0.15487
C          2.44855        18.52395         0.23790
C          3.78438         2.05453        -0.03994
C          3.71550         3.48641         0.18587
C          5.03127         1.41631        -0.07605
C          4.87926         4.20246         0.48532
C          3.64208         6.33736         0.33036
C          3.62976         7.77063         0.38194
C          4.89427         5.62981         0.45679
C          4.85517         8.49377         0.45886
C          3.59270        10.63429         0.31127
C          3.58744        12.06449         0.23362
C          4.83795         9.92281         0.38514
C          4.82300        12.77528         0.12986
C          3.56957        14.91930        -0.00183
C          3.58644        16.34317        -0.09191
C          4.80490        14.20688        -0.04938
C          4.79353        17.02683        -0.42157
C          3.57010        19.20153        -0.08158
C          4.77231        18.52177        -0.68277
C          6.22160         2.08745         0.30291
C          6.09097         3.44504         0.96096
C          7.46259         1.49275         0.17491
C          7.37150         4.23487         0.90491
C          6.11864         6.32848         0.51024
C          6.12041         7.77627         0.48003
C          7.37029         5.59712         0.67207
C          7.32183         8.47218         0.46357
C          6.05093        10.65870         0.36060
C          6.05340        12.05607         0.18797
C          7.35788         9.96490         0.65749
C          7.32132        12.77418         0.12645
C          6.00674        14.93058        -0.22423
C          6.00065        16.32080        -0.50107
C          7.27979        14.24879         0.06959
C          7.23141        17.08982        -1.00078
C          6.07095        19.13532        -0.21857
C          7.27259        18.47633        -0.36952
C          8.68430         2.11657         0.60170
C          8.61868         3.47506         1.29564
C          9.88100         1.47234         0.52513
C          9.90182         4.25230         1.10566
C          8.62893         6.32528         0.65891
C          8.61143         7.74813         0.15170
C          9.82591         5.67962         0.91211
C          9.84981         8.56612         0.47417
C          8.52455        10.60406        -0.10327
C          8.52917        12.11015         0.05979
C          9.81060         9.92984         0.31225
C          9.78505        12.82363        -0.07211
C          8.55519        14.99521        -0.16341
C          8.58242        16.29669        -0.94625
C          9.80627        14.21802        -0.26660
C          9.80101        17.07469        -0.50064
C          8.50854        19.12222        -0.10576
C          9.75851        18.46464        -0.21849
C         11.09770         2.05667         1.21187
C         11.10934         3.56501         1.05017
C         12.36625         1.39293         0.76497
C         12.35695         4.23322         0.80525
C         11.08063         6.45390         1.01344
C         11.10444         7.88407         0.68990
C         12.40885         5.69355         0.94630
C         12.33281         8.53557         0.56480
C         11.02093        10.73785         0.48217
C         11.02365        12.13109         0.01326
C         12.36613        10.00242         0.55225
C         12.24894        12.79529        -0.19639
C         11.02725        14.91695        -0.41828
C         11.01749        16.36967        -0.40950
C         12.25188        14.21259        -0.39839
C         12.24192        17.06830        -0.20912
C         10.99324        19.14456         0.03058
C         12.20872        18.47973        -0.00155
C         13.50859         2.08250         0.44401
C         13.52896         3.54136         0.48221
C         14.73170         1.38953         0.13825
C         14.75602         4.24469         0.21765
C         13.60140         6.41831         0.49043
C         13.57254         7.81775         0.38885
C         14.78275         5.67036         0.19380
C         14.77549         8.53544         0.03465
C         13.55515        10.70577         0.04227
C         13.49168        12.05945        -0.24176
C         14.76678         9.93870        -0.14735
C         14.67723        12.75295        -0.86400
C         13.49391        14.94129        -0.43794
C         13.48729        16.35237        -0.27647
C         14.72279        14.23718        -0.58549
C         14.72500        17.06661        -0.26334
C         13.48705        19.22990         0.30450
C         14.75122        18.48321        -0.06679
C         15.92127         2.05850        -0.07873
C         15.95835         3.51888        -0.06153
C         17.13925         1.31363        -0.24904
C         17.16208         4.19167        -0.30430
C         15.99478         6.36804        -0.09281
C         15.99376         7.79638        -0.15575
C         17.20378         5.62877        -0.32334
C         17.20850         8.49638        -0.40099
C         15.98523        10.64165        -0.42940
C         15.98149        12.04995        -0.59596
C         17.21802         9.92241        -0.48877
C         17.19087        12.76353        -0.68610
C         15.93313        14.92913        -0.65105
C         15.94703        16.36616        -0.50913
C         17.19514        14.20904        -0.75939
C         17.15916        17.08011        -0.60741
C         15.95284        19.16371        -0.12792
C         17.18204        18.48598        -0.40716
C         18.37652         1.91096        -0.35718
C         18.39914         3.40568        -0.71880
C         19.55900         1.08228        -0.47080
C         19.64536         4.20235        -0.38291
C         18.40846         6.35338        -0.55367
C         18.43087         7.76524        -0.55865
C         19.69083         5.62216        -0.88271
C         19.67321         8.49395        -0.67770
C         18.43951        10.63445        -0.66066
C         18.43381        12.05490        -0.70603
C         19.68422         9.91699        -0.71825
C         19.66448        12.77802        -0.79302
C         18.39947        14.90195        -0.84288
C         18.39143        16.38509        -1.12344
C         19.65146        14.20287        -0.84256
C         19.67593        17.08354        -0.76379
C         18.41535        19.18453        -0.43140
C         19.65735        18.50198        -0.54334
C         20.76972         1.52117         0.07945
C         20.68059         3.72580         0.33771
C         22.10751         1.18850        -0.19601
C         22.01671         4.33052         0.42943
C         20.91188         6.38178        -0.41842
C         20.91560         7.79382        -0.56575
C         22.07831         5.73144        -0.00897
C         22.14657         8.50946        -0.47560
C         20.91275        10.63243        -0.79058
C         20.90362        12.06991        -0.84356
C         22.16277         9.92783        -0.69469
C         22.11568        12.79843        -0.93503
C         20.88011        14.92265        -0.87141
C         20.88126        16.37923        -0.77990
C         22.09928        14.20661        -0.92915
C         22.12032        17.09088        -0.62592
C         20.87999        19.19248        -0.38141
C         22.11292        18.51114        -0.42435
C         23.26990         1.99087         0.07150
C         23.28463         3.46409         0.39573
C         24.50169         1.38344        -0.16844
C         24.54676         4.22627         0.15453
C         23.32348         6.40549         0.01369
C         23.35882         7.81011        -0.23819
C         24.52148         5.63559         0.16338
C         24.60404         8.52412        -0.24268
C         23.39325        10.61050        -0.77277
C         23.41123        12.05854        -1.20051
C         24.62330         9.93288        -0.53006
C         24.61480        12.76939        -0.55360
C         23.36747        14.97363        -1.01219
C         23.36210        16.40914        -0.68901
C         24.67521        14.24185        -0.90204
C         24.57477        17.07458        -0.41930
C         23.35611        19.19493        -0.27514
C         24.56857        18.50682        -0.24155
C         25.76232         2.06921        -0.24955
C         25.77661         3.52758        -0.09613
C         26.92635         1.37682        -0.50081
C         26.97840         4.21154        -0.27820
C         25.77117         6.39048         0.29643
C         25.80593         7.83561         0.01655
C         27.08097         5.61201         0.11476
C         27.04871         8.51651        -0.01719
C         25.87540        10.61686        -0.50261
C         25.94163        12.07324        -0.89887
C         27.06947         9.93476        -0.22518
C         27.11689        12.81941        -0.30102
C         25.86790        14.97464        -0.43133
C         25.80772        16.34135        -0.25094
C         27.08586        14.21385        -0.17560
C         26.97152        17.04999         0.39909
C         25.82481        19.20254        -0.09990
C         27.01876        18.52935         0.09641
C         28.19016         2.02987        -1.00171
C         28.18251         3.55086        -0.82261
C         29.47698         1.39452        -0.53009
C         29.50204         4.28504        -0.67702
C         28.31594         6.38319        -0.09834
C         28.28764         7.80054         0.02619
C         29.52036         5.70604        -0.27305
C         29.51783         8.51330         0.06147
C         28.32663        10.64493        -0.10891
C         28.33405        12.10755        -0.11032
C         29.50416         9.94466         0.10744
C         29.53625        12.80884         0.05261
C         28.30084        14.92897         0.09405
C         28.29045        16.34143         0.20932
C         29.54307        14.22483         0.13493
C         29.49595        17.04692         0.32344
C         28.27011        19.19580         0.19764
C         29.47666        18.49757         0.35509
C         30.70232         2.08265        -0.47563
C         30.74801         3.52391        -0.52962
C         31.93580         1.38725        -0.31690
C         31.95876         4.22473        -0.35022
C         30.76047         6.40265        -0.20957
C         30.75291         7.81493        -0.00655
C         31.98353         5.66640        -0.28811
C         31.98974         8.55387        -0.02590
C         30.75755        10.66965         0.54592
C         30.84215        12.06672        -0.06122
C         32.03511         9.92033         0.23832
C         32.03009        12.82958         0.46065
C         30.77096        14.93816         0.30564
C         30.74992        16.34727         0.38925
C         32.01933        14.21114         0.48704
C         31.97579        17.07449         0.58992
C         30.71818        19.17899         0.49474
C         31.92184        18.50435         0.62784
C         33.17265         2.07072        -0.24608
C         33.19060         3.50910        -0.25283
C         34.40316         1.37272        -0.15946
C         34.42623         4.21445        -0.12715
C         33.22672         6.35400        -0.26675
C         33.21214         7.82756        -0.38545
C         34.43946         5.66081        -0.16567
C         34.53563         8.59234        -0.29169
C         33.27152        10.63323         0.35505
C         33.23118        12.04356         0.92535
C         34.49362         9.98666         0.18054
C         34.53553        12.79660         0.78464
C         33.24283        14.96047         0.71286
C         33.20527        16.36275         0.73691
C         34.50868        14.24521         0.79743
C         34.47513        17.14340         1.03071
C         33.17033        19.31995         0.88654
C         34.42831        18.55503         0.42849
C         35.63031         2.06356        -0.03565
C         35.62695         3.49316         0.01327
C         36.87240         1.36594         0.01530
C         36.88720         4.21451         0.40233
C         35.71295         6.37054        -0.13131
C         35.76301         7.81093        -0.11715
C         36.90014         5.65490        -0.01168
C         36.96892         8.50070         0.18721
C         35.74550        10.63904         0.49450
C         35.71985        12.06921         0.77710
C         36.94288         9.92054         0.45788
C         37.00814        12.75810         0.96220
C         35.70591        14.97411         0.69605
C         35.72763        16.40442         0.60447
C         37.00149        14.29036         0.84046
C         36.89865        17.08560         0.30084
C         35.73154        19.33019         0.70227
C         36.95298        18.52545         0.30299
C         38.11368         2.05168         0.01630
C         38.14874         3.46834         0.06722
C         39.35516         1.33111        -0.03207
C         39.38685         4.16275         0.04994
C         38.18758         6.36194        -0.30976
C         38.19677         7.78782         0.17882
C         39.43384         5.58893         0.02353
C         39.45471         8.45942         0.25828
C         38.23811        10.57153         0.89455
C         38.26010        12.06165         0.66956
C         39.48402         9.87410         0.41335
C         39.43610        12.76720         0.46070
C         38.22415        14.93283         0.38107
C         38.10973        16.32275        -0.20274
C         39.41504        14.22161         0.29747
C         39.40931        17.08082        -0.08525
C         38.13080        19.18922         0.06697
C         39.39048        18.49398        -0.07056
C         40.55681         1.99224         0.01810
C         40.60909         3.41875         0.06611
C         41.83649         4.12380         0.14131
C         40.65829         6.26660         0.09411
C         40.67638         7.73006         0.10056
C         41.86009         5.50372         0.18636
C         41.87454         8.46095         0.00589
C         40.68859        10.58637         0.26643
C         40.68528        12.05288         0.24978
C         41.87945         9.84924         0.04515
C         41.82576        12.77594        -0.05543
C         40.64720        14.91829        -0.02407
C         40.63754        16.38544        -0.09421
C         41.81056        14.18646        -0.17809
C         41.83741        17.12895        -0.11455
C         40.60437        19.21010        -0.10495
C         41.81596        18.52370        -0.13727
O         20.56930         2.53073         1.04155
O         33.87555         8.34596        -1.58701
O         37.09664        13.61958         2.14872
O         28.78709         4.18951        -2.00068
O         11.85112         6.15683         2.22219
O         26.54559         5.93311         1.44984
O          7.98540        14.98177         1.17028
O         22.70520         3.94256         1.65624
O         24.17736        14.62787        -2.22330
O         11.74598        10.58291         1.74443
O         37.86973        16.13021        -1.64635
H         38.68784        15.74767        -2.02933
O         35.86531        19.69347         2.07893
H         35.68138        18.89233         2.61894
O         26.17668        12.12306        -2.32862
H         25.34025        11.82892        -2.77228
O         28.18543         1.75039        -2.44483
H         28.60535         2.53724        -2.87120
O         19.79848         5.60589        -2.35895
H         19.71112         6.53272        -2.66963
O         33.20746        19.66637         2.27361
H         33.43110        18.85280         2.77899
O         34.55355        17.28338         2.49117
H         34.61464        16.38003         2.87137
O         24.41318        12.67929         0.87568
H         25.19648        13.06207         1.32544
O          5.82568         3.14828         2.39796
H          5.53465         3.98700         2.81653
O         26.69857        16.95939         1.84907
H         27.41251        17.45111         2.30850
O         30.62795        10.83380         1.98177
H         30.68890         9.95109         2.40110
O          7.64313        10.19861         2.07294
H          6.89771         9.83948         2.59793
O          8.61390         7.60510        -1.31731
H          8.43501         8.50927        -1.68387
O          6.96383        17.35054        -2.41131
H          7.27142        16.55402        -2.90687
O         18.30396        16.49418        -2.60336
H         17.43762        16.11752        -2.86786
O          8.29998        10.34438        -1.52921
H          8.96347        10.85624        -2.03856
O          8.51580         3.18192         2.73378
H          7.57871         2.89619         2.89382
O         23.56907        12.06028        -2.65426
H         23.61687        13.01617        -2.92057
O         18.33240         3.33178        -2.18318
H         18.74694         4.15376        -2.54595
O         31.07961        11.86576        -1.49219
H         31.02367        12.73777        -1.93655
O         36.86213         4.24616         1.89866
H         36.81778         3.31308         2.20058
O          4.65971        18.74530        -2.12491
H          5.45356        18.31640        -2.53400
O         38.25187        10.41620         2.36646
H         39.01116        10.93406         2.70959
O         34.32246        18.35931        -0.99816
H         34.36155        19.23188        -1.44121
O         14.46516        12.63446        -2.32684
H         15.26383        12.99888        -2.76466
O         38.22623         6.48441        -1.79823
H         37.42678         6.98910        -2.06519
O          8.88149        15.83544        -2.30777
H          9.44944        16.50913        -2.73821
O         13.46995        20.53236        -0.29281
H         13.45857        20.42342        -1.26546
O         33.07366        11.89071         2.38356
H         33.91307        11.51990         2.73071
O         10.93817         1.75139         2.63286
H         10.11159         2.21088         2.93126
H          0.46673         1.47274        -0.70593
H          0.34500         3.91595        -0.40406
H          2.63360         0.26641        -0.53171
H          0.25861         5.80019         0.05039
H          0.21777         8.22560         0.18966
H          0.18887        10.12293         0.36398
H          0.17845        12.55135         0.31515
H          0.20262        14.47998         0.56174
H          0.26699        16.94016         0.57953
H          1.55508        19.05829         0.59577
H          5.09974         0.38757        -0.46144
H          3.59207        20.29968        -0.01202
H          7.52225         0.46308        -0.21355
H          6.06402        20.16270         0.17879
H          9.94426         0.46923         0.07505
H          8.49046        20.17440         0.21565
H         12.38955         0.29239         0.78488
H         10.97544        20.22451         0.23835
H         14.71964         0.28911         0.12895
H         13.51532        19.40258         1.41842
H         17.07797         0.21781        -0.15351
H         15.96586        20.25134         0.03649
H         19.47691         0.09644        -0.95590
H         18.41786        20.27203        -0.26537
H         22.29160         0.25559        -0.75286
H         20.86711        20.27908        -0.20952
H         24.50937         0.30536        -0.39330
H         23.34909        20.28867        -0.15516
H         26.88131         0.27970        -0.58439
H         25.82393        20.30165        -0.16865
H         29.49908         0.29449        -0.48509
H         28.29534        20.29380         0.12045
H         31.92768         0.28797        -0.27765
H         30.71557        20.27924         0.52034
H         34.40334         0.27306        -0.18638
H         33.10751        20.28227         0.31109
H         36.86803         0.26668        -0.02018
H         35.71182        20.28491         0.11073
H         39.32638         0.23285        -0.07934
H         38.14502        20.28943         0.08600
H         41.50033         1.42695         0.01748
H         42.77853         3.55715         0.17350
H         42.82836         6.01603         0.26753
H         42.83024         7.93838        -0.13526
H         42.83870        10.37021        -0.07158
H         42.78196        12.26384        -0.22464
H         42.75707        14.68919        -0.41791
H         42.80748        16.61431        -0.10409
H         40.58684        20.30902        -0.09114
H         42.76261        19.08129        -0.15895
