         404
 CSIRO Nanostructure Databank - Neutral Graphene Oxide Data Set
C          1.52520         2.21135        -2.10377
C          1.44423         3.57841        -1.82778
C          2.67622         1.49043        -1.80175
C          2.51311         4.25667        -1.20137
C          1.33383         6.43597        -1.21733
C          1.30524         7.82749        -1.04816
C          2.47033         5.69309        -0.92031
C          2.41226         8.53695        -0.58333
C          1.27556        10.73533        -0.87660
C          1.36186        12.13551        -1.12184
C          2.36982         9.98539        -0.48399
C          2.52295        12.84302        -0.93491
C          1.51392        15.01837        -1.73944
C          1.53244        16.36917        -1.67789
C          2.76223        14.18794        -1.59046
C          2.73806        17.09780        -1.36233
C          2.75581        18.50944        -1.36134
C          3.77264         2.13473        -1.18394
C          3.66303         3.51246        -0.85707
C          5.01942         1.44587        -1.00401
C          4.74999         4.17500        -0.12804
C          3.62533         6.37597        -0.36289
C          3.60746         7.82392        -0.20339
C          4.75728         5.63623        -0.02239
C          4.75633         8.51784         0.24093
C          3.55430        10.68279         0.02375
C          3.62950        12.21593        -0.21058
C          4.81904         9.95669         0.23031
C          4.96133        12.83816        -0.18761
C          3.90907        14.94594        -0.95864
C          3.91522        16.37003        -1.00186
C          5.02856        14.24923        -0.46004
C          5.09184        17.08486        -0.64404
C          3.90274        19.20893        -1.02694
C          5.09758        18.52035        -0.66791
C          6.15872         2.07533        -0.52568
C          6.06906         3.43119         0.06074
C          7.42953         1.44244        -0.56049
C          7.30351         4.21694         0.28066
C          5.92354         6.25647         0.62319
C          5.90359         7.76376         0.77702
C          7.24450         5.56912         0.59693
C          7.20388         8.47464         1.02307
C          5.99742        10.67995         0.46457
C          6.07722        12.10806         0.25361
C          7.22592         9.96866         0.90304
C          7.33958        12.79426         0.47440
C          6.23332        14.95468        -0.13019
C          6.26908        16.37402        -0.27022
C          7.37465        14.24044         0.34480
C          7.47761        17.08876        -0.02684
C          6.26942        19.21956        -0.32543
C          7.48037        18.54204        -0.03091
C          8.59648         2.09582        -0.16745
C          8.57154         3.50731         0.23385
C          9.83494         1.40476        -0.20190
C          9.72556         4.14564         0.60766
C          8.45539         6.33236         0.82596
C          8.47937         7.71883         0.94640
C          9.70965         5.55494         1.15188
C          9.73120         8.46001         1.05582
C          8.54129        10.64346         0.83059
C          8.51291        12.07107         0.76463
C          9.73113         9.91882         1.01921
C          9.74023        12.77555         1.17495
C          8.56079        14.97322         0.60404
C          8.62483        16.36286         0.35033
C          9.74887        14.28377         1.13607
C          9.91659        17.06023         0.44729
C          8.61950        19.25997         0.36191
C          9.91849        18.62788         0.47426
C         11.03285         2.01378         0.16455
C         11.01156         3.38898         0.79322
C         12.26155         1.33711         0.06809
C         12.19021         4.23063         0.33306
C         10.99023         6.33322         0.91923
C         10.95148         7.75687         1.05084
C         12.19559         5.67342         0.67542
C         12.25423         8.46170         1.35254
C         11.00878        10.63924         1.06378
C         11.02812        12.05479         1.12923
C         12.24318         9.94349         1.07282
C         12.24701        12.77804         1.21008
C         11.04842        14.98730         1.19492
C         11.06172        16.36223         1.05246
C         12.26745        14.22142         1.34578
C         12.22016        17.13635         1.49281
C         11.08852        19.30055         1.02436
C         12.28147        18.61349         1.31589
C         13.49643         2.01696         0.17418
C         13.48049         3.50119         0.11159
C         14.71554         1.34601         0.17224
C         14.73841         4.24318         0.29940
C         13.45829         6.37929         0.61320
C         13.49537         7.76073         0.85479
C         14.69117         5.62962         0.45754
C         14.71837         8.51537         0.78285
C         13.46990        10.64650         1.04463
C         13.48510        12.07117         1.12462
C         14.72375         9.93415         0.90642
C         14.73442        12.77708         1.13200
C         13.49779        14.89614         1.42004
C         13.49905        16.33815         1.72547
C         14.74178        14.19396         1.26572
C         14.78710        17.09687         1.69349
C         13.48627        19.29165         1.52415
C         14.77642        18.60973         1.65469
C         15.96218         2.04135         0.16992
C         15.96856         3.49759         0.25817
C         17.16439         1.33874         0.10142
C         17.19834         4.15753         0.26927
C         15.94591         6.36387         0.67308
C         15.95296         7.84051         0.56107
C         17.24474         5.59749         0.54463
C         17.15698         8.53300         0.37922
C         15.95693        10.64668         0.83161
C         15.97585        12.07648         0.98183
C         17.17592         9.95352         0.53046
C         17.21233        12.79104         0.96729
C         15.97472        14.90323         1.16300
C         15.93756        16.38108         1.06707
C         17.20065        14.23519         0.99862
C         17.18665        17.16564         0.82084
C         16.01636        19.31222         1.27693
C         17.20564        18.63884         1.04906
C         18.43804         1.99621         0.02667
C         18.43696         3.45974         0.11063
C         19.61856         1.29057        -0.12537
C         19.63274         4.17234         0.15840
C         18.47909         6.33128         0.24786
C         18.33484         7.76077        -0.21880
C         19.66028         5.61757         0.16186
C         19.65313         8.51574        -0.21213
C         18.40699        10.69573         0.48431
C         18.44068        12.05481         0.81805
C         19.65254         9.98984         0.06167
C         19.73702        12.79507         0.90888
C         18.42473        15.01682         0.88251
C         18.45318        16.41407         0.81126
C         19.70143        14.30491         0.95957
C         19.66569        17.17300         0.63511
C         18.43644        19.31777         0.86680
C         19.64532        18.62962         0.60753
C         20.90641         2.01696        -0.41416
C         20.89153         3.39624         0.20906
C         22.19189         1.28918        -0.11594
C         22.18510         4.13672         0.27170
C         20.94473         6.31922         0.10621
C         20.93619         7.76655        -0.03443
C         22.13041         5.60954         0.20794
C         22.12168         8.46875        -0.10106
C         20.99124        10.55332         0.50551
C         21.02111        12.08633         0.54937
C         22.14961         9.91881        -0.22341
C         22.07025        12.85345        -0.24184
C         20.98712        15.06815         0.65484
C         20.87592        16.51668         0.38369
C         22.08086        14.33694        -0.03044
C         22.03935        17.24903         0.01016
C         20.84246        19.34535         0.37948
C         22.05802        18.68319         0.06681
C         23.41642         1.97102        -0.07298
C         23.44712         3.42438        -0.03933
C         24.66549         1.28086        -0.06971
C         24.64660         4.11798        -0.16066
C         23.42748         6.28585         0.27229
C         23.41107         7.79684         0.08551
C         24.66150         5.57079        -0.08362
C         24.60825         8.43133        -0.44252
C         23.27706        10.59196        -0.60751
C         23.27448        12.07440        -0.82624
C         24.50681         9.81401        -0.89826
C         24.61673        12.72371        -1.05130
C         22.90394        15.15518        -0.76771
C         23.16468        16.53826        -0.46067
C         24.71102        14.13740        -1.30797
C         24.44778        17.14271        -0.62865
C         23.28808        19.31800        -0.20215
C         24.47848        18.58094        -0.45565
C         25.90096         1.96638        -0.15182
C         25.90049         3.40591        -0.27175
C         27.14685         1.29277        -0.13174
C         27.11120         4.10178        -0.42929
C         25.81600         6.29411        -0.31272
C         25.81634         7.73647        -0.46773
C         27.05710         5.56681        -0.64729
C         27.06184         8.47848        -0.51304
C         25.84039        10.57477        -0.92507
C         25.80129        12.04154        -0.87131
C         27.04410         9.86873        -0.52064
C         27.09533        12.74992        -0.90188
C         25.76857        14.96347        -0.94329
C         25.68897        16.40785        -0.76395
C         27.07580        14.28432        -0.87661
C         26.92380        17.09881        -0.57429
C         25.71645        19.25321        -0.54213
C         26.93311        18.54143        -0.55707
C         28.37577         1.99350        -0.20061
C         28.36426         3.42672        -0.37320
C         29.62374         1.32735        -0.11201
C         29.60937         4.13022        -0.43018
C         28.33624         6.34403        -0.70782
C         28.32752         7.78915        -0.37149
C         29.62363         5.58784        -0.65376
C         29.47797         8.46807        -0.04106
C         28.18660        10.65330        -0.03269
C         28.28032        12.08272        -0.34719
C         29.48052         9.90601         0.28892
C         29.45524        12.79303        -0.10298
C         28.25649        14.96873        -0.34715
C         28.17677        16.41520        -0.31958
C         29.42212        14.24555        -0.09781
C         29.35298        17.14820        -0.11121
C         28.16848        19.23937        -0.54702
C         29.38675        18.56675        -0.35815
C         30.84853         2.03287        -0.09611
C         30.83380         3.47340        -0.21158
C         32.09004         1.36241         0.02489
C         32.07653         4.20630        -0.04431
C         30.86826         6.34720        -0.30057
C         30.74061         7.74525         0.18454
C         32.08952         5.61363         0.04842
C         32.01173         8.51536         0.45279
C         30.74834        10.67588         0.26512
C         30.70131        12.09277         0.18170
C         31.98265         9.98836         0.34473
C         31.93573        12.82791         0.25715
C         30.62020        14.95222         0.39193
C         30.56604        16.47754         0.38790
C         31.93314        14.25561         0.34581
C         31.86096        17.23290         0.37488
C         30.63596        19.24064        -0.45225
C         31.86452        18.58433        -0.24055
C         33.32050         2.06377         0.07597
C         33.31090         3.50521         0.08880
C         34.55949         1.38755         0.12341
C         34.53115         4.23364         0.18718
C         33.28896         6.36196         0.23587
C         33.28505         7.79004         0.30023
C         34.52977         5.66170         0.24604
C         34.48968         8.53070         0.30607
C         33.22286        10.68257         0.30495
C         33.18130        12.13358         0.29181
C         34.44972         9.96035         0.31699
C         34.38378        12.87330         0.39875
C         33.13890        14.97070         0.42051
C         33.15812        16.45701         0.44117
C         34.38969        14.28164         0.44316
C         34.38773        17.11378        -0.04683
C         33.08295        19.16575        -0.59467
C         34.32652        18.45892        -0.53264
C         35.78448         2.09581         0.15240
C         35.77459         3.53183         0.19573
C         37.02939         1.41902         0.12061
C         36.99706         4.25725         0.22475
C         35.75395         6.40090         0.29734
C         35.74650         7.82435         0.32297
C         36.99202         5.68843         0.28540
C         36.98659         8.54430         0.47072
C         35.74299        10.71459         0.13941
C         35.62959        12.12682         0.66926
C         36.98773         9.96880         0.57503
C         36.88773        12.90469         0.88004
C         35.65776        15.02009         0.44320
C         35.61711        16.42631         0.02600
C         36.86691        14.36632         0.64040
C         36.79382        17.08274        -0.41052
C         35.49176        19.05765        -1.04575
C         36.73100        18.37886        -1.01740
C         38.24260         2.12422         0.10307
C         38.23525         3.55502         0.16665
C         39.50100         1.44079        -0.00270
C         39.46383         4.28094         0.11687
C         38.21908         6.41079         0.34869
C         38.20330         7.81415         0.52119
C         39.46625         5.69962         0.21469
C         39.49898         8.50313         0.85629
C         38.22204        10.67937         0.76322
C         38.19458        12.15915         0.95175
C         39.44541        10.00590         0.71974
C         39.48836        12.95252         0.77880
C         38.16339        15.06623         0.45919
C         38.10852        16.49819        -0.16993
C         39.38638        14.30450         0.24469
C         39.25003        16.98564        -0.95928
C         37.90812        18.97212        -1.53988
C         39.13256        18.26239        -1.59348
C         40.67734         2.14088        -0.09384
C         40.69029         3.56950        -0.05467
C         41.89391         4.30609        -0.20270
C         40.69181         6.42486         0.06531
C         40.68810         7.84628         0.18396
C         41.88984         5.68521        -0.17402
C         41.83688         8.62348        -0.11888
C         40.75666        10.69848         0.69441
C         40.79857        12.22351         0.69334
C         41.90384         9.96712         0.13900
C         41.95390        13.00576         0.20163
C         40.44079        14.74647        -0.73935
C         40.42346        16.21850        -1.11482
C         41.80511        14.21619        -0.35763
C         41.48664        16.75049        -1.85878
C         40.25361        18.78792        -2.29457
C         41.41168        18.04164        -2.41168
O         36.07993        12.40650         2.02159
O         38.37156        16.28099         1.25802
O         21.55685         3.54452         1.49448
O         20.59257        14.78799         2.02550
O         25.19143        10.08034        -2.15221
O          5.57822         6.88650         1.90757
O         15.04943        17.81004         2.92055
O         19.67395         9.50253        -1.31916
O         27.60776         6.01982        -1.94319
O          9.51265        13.56424         2.40247
O         38.90256        12.70300         2.10213
O         22.12941        12.46783        -1.64992
O         31.20489         7.92714         1.55969
O         30.52215         6.09889        -1.70704
O         32.59464        17.12502         1.62939
O         16.26237        16.83378        -0.29680
O         23.57502        14.68594        -1.89310
O          5.10490         3.52443         1.15477
O         41.10539        11.47932         1.90239
O         10.26622        17.81013        -0.72989
O         23.57954         7.19158         1.41357
O         16.68008         5.93294         1.88242
O         12.64780        16.71186         2.83626
O         12.64844         3.97866        -1.03049
O          7.09427         9.31087         2.22750
O         28.56193        10.30389         1.35068
O          3.25908        11.64296         1.08153
O         30.36129        15.71869         1.61687
O         27.35823        13.52817        -2.11365
O         20.74451        12.42977         1.93155
O         12.36206         8.37649         2.82949
H         11.52964         8.73360         3.20812
O         11.19078         3.17333         2.22600
H         10.78497         3.94590         2.69644
O         20.91618         2.27394        -1.87326
H         20.87202         1.40640        -2.32820
O          9.66009         5.39334         2.63424
H          8.73320         5.17484         2.87610
O         17.95125         7.59683        -1.62623
H         18.32887         8.37292        -2.10551
O         35.91415        10.91208        -1.32100
H         35.88441        10.02723        -1.74384
O         21.17671        10.03854         1.85333
H         20.99664        10.77825         2.48428
O          3.20749        13.86780        -2.96327
H          3.36351        14.72016        -3.42310
O         40.07477        14.04339        -1.99726
H         40.62291        14.42914        -2.71499
O         39.70512         8.26882         2.31105
H         40.31042         8.96896         2.63962
H          0.67448         1.70676        -2.58256
H          0.52697         4.11459        -2.10354
H          2.74515         0.42194        -2.04970
H          0.43325         5.94686        -1.60981
H          0.38083         8.35683        -1.31196
H          0.34331        10.23921        -1.17757
H          0.50058        12.60450        -1.61707
H          0.57878        14.50848        -2.01015
H          0.61202        16.94411        -1.86135
H          1.83848        19.05341        -1.62964
H          5.09893         0.41286        -1.37482
H          3.90176        20.30826        -1.03296
H          7.49090         0.40028        -0.90802
H          6.25822        20.31941        -0.31946
H          9.84884         0.37067        -0.57911
H          8.52906        20.33041         0.59713
H         12.26443         0.25801        -0.15129
H         11.06113        20.39524         1.12703
H         14.72457         0.24556         0.15972
H         13.50551        20.37920         1.35687
H         17.13760         0.23936         0.05621
H         16.01243        20.41286         1.29492
H         19.59227         0.19151        -0.19309
H         18.45072        20.41614         0.92953
H         22.19542         0.18794        -0.14510
H         20.82031        20.44461         0.41708
H         24.66585         0.18117        -0.02922
H         23.35247        20.41540        -0.15358
H         27.16250         0.19723        -0.03000
H         25.73911        20.35163        -0.48693
H         29.63843         0.23120        -0.01667
H         28.16470        20.33451        -0.64784
H         32.10134         0.26321         0.07041
H         30.64472        20.28961        -0.78406
H         34.57533         0.28786         0.10709
H         33.08345        20.17782        -1.02641
H         37.04173         0.31950         0.07814
H         35.43886        20.06848        -1.47521
H         39.50394         0.34167        -0.03670
H         37.85080        19.97825        -1.97930
H         41.63259         1.60689        -0.20296
H         42.83908         3.76302        -0.34772
H         42.84444         6.21633        -0.28829
H         42.72085         8.13217        -0.55014
H         42.84198        10.51239        -0.02877
H         42.95861        12.62550         0.43788
H         42.69981        14.80028        -0.61752
H         42.39786        16.15920        -2.02666
H         40.17600        19.77709        -2.76724
H         42.27201        18.43990        -2.96718
