         430
 CSIRO Nanostructure Databank - Neutral Graphene Oxide Data Set
C         27.95506        27.48327        -1.15012
C         27.91261        28.94724        -1.00052
C         26.64562        29.66652        -0.72153
C         27.79895        31.57115         0.48812
C         26.62233        30.89902        -0.19283
C         27.88731        33.08637         0.30187
C         26.71424        33.82636         0.32072
C         27.91262        35.94984         0.38701
C         26.72155        35.23317         0.34751
C         27.92043        37.41755         0.40221
C         26.72615        38.16552         0.26563
C         27.94198        40.27424         0.44835
C         26.73550        39.54887         0.30451
C         27.95456        41.72912         0.52400
C         26.77696        42.48799         0.46855
C         28.00762        44.58474         0.70063
C         26.80188        43.88385         0.54723
C         28.03501        46.01855         0.71697
C         30.40548        27.42722        -0.78660
C         29.11926        26.79531        -1.03872
C         30.44454        28.82633        -0.54382
C         29.18691        29.60773        -0.58565
C         30.43240        31.62331         0.26661
C         29.13976        30.87021         0.21898
C         30.39233        33.09753         0.30225
C         29.14381        33.78306         0.32629
C         30.38852        35.91134         0.44028
C         29.15342        35.22020         0.38075
C         30.42118        37.37731         0.80472
C         29.13222        38.12064         0.53114
C         30.42951        40.24407         0.60599
C         29.15234        39.53541         0.53523
C         30.40361        41.68189         0.72022
C         29.21226        42.41309         0.69315
C         30.45031        44.57979         0.95563
C         29.24339        43.86347         0.80687
C         30.47598        46.01989         0.89098
C         29.21541        46.70534         0.77456
C         32.78536        24.53159        -0.94721
C         31.63702        25.24572        -0.89601
C         32.86413        27.37411        -0.60047
C         31.62124        26.68963        -0.76051
C         32.89551        28.80202        -0.47070
C         31.65731        29.52308        -0.40649
C         32.86411        31.66523        -0.16718
C         31.68236        30.95536        -0.17820
C         32.86603        33.08712         0.11581
C         31.60864        33.79956         0.21704
C         32.87939        35.92952         0.34899
C         31.61234        35.22560         0.32097
C         32.91150        37.34969         0.41350
C         31.60636        38.07749         0.14819
C         32.94107        40.23322         0.30645
C         31.62135        39.54397         0.49135
C         32.94982        41.63872         0.85836
C         31.67036        42.39241         0.96575
C         32.91930        44.52837         0.92841
C         31.71552        43.87198         0.94521
C         32.97044        45.98485         1.31785
C         31.70565        46.71238         0.90680
C         32.95894        48.78888         0.52964
C         31.79281        48.09186         0.52364
C         35.40291        22.92244        -0.53571
C         35.36611        24.39174        -0.69860
C         34.09820        25.19373        -0.89089
C         35.30015        27.33222        -0.39423
C         34.10138        26.65271        -0.59947
C         35.33317        28.76272        -0.30978
C         34.12732        29.49805        -0.41636
C         35.33076        31.60519         0.10969
C         34.15837        31.00359        -0.60312
C         35.32850        33.01907         0.58670
C         34.06516        33.77527         0.28202
C         35.35029        35.89768         0.39777
C         34.09518        35.20181         0.37591
C         35.36701        37.31061         0.48764
C         34.12753        38.01927         0.54182
C         35.43106        40.19912         0.64431
C         34.12562        39.47634         0.92317
C         35.40333        41.66123         0.64994
C         34.22730        42.36277         0.69514
C         35.44843        44.53034         1.06522
C         34.20026        43.85610         0.48616
C         35.43066        46.01783         0.75991
C         34.25669        46.69666         0.94142
C         35.46151        48.89774         0.60091
C         34.22408        48.19895         1.10442
C         35.54860        50.25744         0.71845
C         37.85497        22.99055        -0.22064
C         36.57833        22.29217        -0.30309
C         37.86380        24.39586        -0.18999
C         36.56373        25.10252        -0.14260
C         37.83702        27.30877        -0.14968
C         36.54913        26.59755        -0.09024
C         37.81170        28.72464        -0.15447
C         36.58169        29.41690        -0.10538
C         37.73841        31.59961        -0.47499
C         36.60635        30.86336         0.29024
C         37.77863        33.06936        -0.10853
C         36.59639        33.76076         0.16316
C         37.82195        35.89600         0.16186
C         36.59233        35.18010         0.25601
C         37.82556        37.33942         0.24682
C         36.61821        38.03480         0.43079
C         37.92420        40.21577         0.53797
C         36.59857        39.49049         0.48056
C         37.83071        41.67965         0.23182
C         36.65984        42.40806         0.49748
C         37.98233        44.55498         0.68265
C         36.68123        43.80847         0.59072
C         37.86513        46.01319         0.27354
C         36.66800        46.68609         0.38423
C         37.89176        48.86144        -0.04008
C         36.57083        48.12833        -0.06798
C         37.89609        50.29226         0.00330
C         36.71862        50.96867         0.33935
C         40.34013        20.18109        -0.00152
C         39.14847        20.85102        -0.11950
C         40.31633        23.01445        -0.05104
C         39.09674        22.27958        -0.13564
C         40.30982        24.44520        -0.06242
C         39.07109        25.14333        -0.11265
C         40.29339        27.30837        -0.13052
C         39.05834        26.58976        -0.12273
C         40.29400        28.74163        -0.19520
C         39.05768        29.46887        -0.19132
C         40.26544        31.60168        -0.34041
C         39.04845        30.87028        -0.26978
C         40.26858        33.03278        -0.34624
C         39.01925        33.77190        -0.17007
C         40.34805        35.89015         0.15842
C         39.03332        35.16936        -0.00810
C         40.27451        37.35143        -0.21436
C         39.07734        38.05705        -0.00531
C         40.23476        40.16656        -0.49649
C         39.07958        39.48094        -0.10420
C         40.17534        41.63051        -0.75826
C         38.98741        42.41189        -0.28159
C         40.27663        44.54055        -0.34772
C         39.10989        43.85315        -0.03507
C         40.28979        45.99424        -0.29301
C         39.08995        46.70354        -0.09645
C         40.32719        48.83360        -0.43254
C         39.08617        48.14047        -0.19047
C         40.33353        50.28418        -0.43635
C         39.14890        51.00662        -0.20088
C         40.38845        53.11092        -0.24800
C         39.19881        52.43212        -0.14015
C         42.80664        20.20841         0.22552
C         41.57118        20.89330         0.09504
C         42.79382        23.03340         0.12379
C         41.56075        22.31514         0.05585
C         42.78647        24.46809         0.04863
C         41.54524        25.17116        -0.02697
C         42.76953        27.31407        -0.11410
C         41.53489        26.59741        -0.08432
C         42.77102        28.74074        -0.28166
C         41.51199        29.45615        -0.31528
C         42.70778        31.59946        -0.64917
C         41.49953        30.87781        -0.40767
C         42.69101        32.98308        -0.74578
C         41.48880        33.72961        -0.51955
C         42.68716        35.88940        -0.71790
C         41.52723        35.16889        -0.44646
C         42.71480        37.32662        -0.61474
C         41.48402        38.04721        -0.48350
C         42.71225        40.17337        -0.78285
C         41.47462        39.46988        -0.64111
C         42.73916        41.62854        -1.03370
C         41.43898        42.39926        -1.00142
C         42.71208        44.52632        -0.80885
C         41.48035        43.84539        -0.73259
C         42.72712        45.96136        -0.75801
C         41.51344        46.68578        -0.58772
C         42.72911        48.81964        -1.17256
C         41.50248        48.11282        -0.65738
C         42.78982        50.27851        -0.79932
C         41.57862        50.98519        -0.57293
C         42.85146        53.08357        -0.51083
C         41.60754        52.40358        -0.44191
C         43.99192        20.90676         0.31261
C         45.26429        23.06274         0.32108
C         44.01851        22.32738         0.25914
C         45.26179        24.48122         0.16060
C         44.01403        25.18201         0.04031
C         45.23692        27.32659        -0.10718
C         44.00455        26.60834        -0.06316
C         45.22355        28.74923        -0.22427
C         43.98120        29.43410        -0.38748
C         45.19583        31.64630        -0.49516
C         43.99046        30.83993        -0.93871
C         45.17920        32.99316        -0.59146
C         43.95848        33.66167        -1.22188
C         45.21884        35.93531        -0.83932
C         43.93493        35.18935        -1.10141
C         45.18264        37.38014        -0.57616
C         43.94374        38.05597        -0.63240
C         45.18536        40.22067        -0.65453
C         43.93627        39.49550        -0.66732
C         45.20396        41.65210        -0.72100
C         43.98862        42.38184        -0.83677
C         45.21214        44.50587        -0.80756
C         43.96567        43.79193        -0.85234
C         45.22226        45.93434        -0.82690
C         43.98788        46.66818        -0.84151
C         45.24499        48.78573        -0.94389
C         44.01109        48.07192        -0.90753
C         45.25862        50.21754        -0.98870
C         44.01424        50.96458        -0.84409
C         44.02224        52.38139        -0.68385
C         47.68784        23.11302         0.56177
C         46.49792        22.40740         0.53374
C         47.71636        24.50809         0.34357
C         46.49533        25.19858         0.13512
C         47.68764        27.36489        -0.18484
C         46.48801        26.64124        -0.05372
C         47.68260        28.79421        -0.20739
C         46.44313        29.46961        -0.16059
C         47.67086        31.67461        -0.08208
C         46.37196        30.94106         0.15078
C         47.64911        33.04787        -0.11342
C         46.33180        33.78048        -0.00766
C         47.60642        35.91632        -0.24045
C         46.43735        35.20877        -0.47563
C         47.63794        37.36415        -0.36464
C         46.41320        38.08023        -0.48510
C         47.65883        40.21278        -0.57645
C         46.41054        39.51494        -0.54314
C         47.67843        41.64105        -0.67429
C         46.44901        42.35810        -0.71164
C         47.68776        44.49597        -0.78482
C         46.44223        43.78791        -0.77231
C         47.69726        45.91511        -0.84314
C         46.46314        46.63743        -0.85989
C         47.72367        48.77061        -0.98492
C         46.47733        48.06427        -0.92427
C         47.69321        50.18367        -1.10685
C         46.49656        50.87977        -1.10196
C         50.18265        24.66565         0.61812
C         48.98062        25.23247         0.29671
C         50.17182        27.44020         0.15397
C         48.98638        26.60630        -0.35368
C         50.21252        28.82027        -0.52510
C         48.92097        29.55434        -0.23822
C         50.15538        31.69763        -0.04889
C         48.92108        30.94542        -0.13323
C         50.12496        33.09408         0.08800
C         48.86854        33.81251         0.00555
C         50.01056        35.98720         0.53545
C         48.82342        35.20156         0.06653
C         50.11073        37.37326        -0.06976
C         48.87628        38.07122        -0.35845
C         50.14437        40.17734        -0.78150
C         48.87345        39.47652        -0.54300
C         50.17001        41.65278        -0.71018
C         48.92916        42.35214        -0.70067
C         50.16142        44.49049        -0.76362
C         48.92232        43.77662        -0.74142
C         50.16701        45.89989        -0.88354
C         48.94751        46.62151        -0.89936
C         50.22531        48.73493        -0.91428
C         48.95532        48.04986        -0.94745
C         51.43607        25.34660         0.36430
C         52.72747        27.40706        -0.36543
C         51.47134        26.66453         0.04862
C         52.66312        28.87418         0.02010
C         51.45754        29.56542        -0.08682
C         52.61810        31.68655         0.27601
C         51.42408        30.98559         0.05037
C         52.66799        33.17773         0.07338
C         51.33422        33.85398         0.27224
C         52.50315        35.98064         0.64486
C         51.30134        35.22871         0.42942
C         52.53822        37.35475         0.42572
C         51.33719        38.01344        -0.07675
C         52.72283        40.13718        -0.38248
C         51.44352        39.38651        -0.59865
C         52.69136        41.65159        -0.46368
C         51.39225        42.35880        -0.62274
C         52.61425        44.50872        -0.35400
C         51.39624        43.77151        -0.61969
C         52.64590        45.91069        -0.47849
C         51.48103        46.59211        -1.16807
C         51.40678        48.07649        -0.95627
C         55.09492        27.41996         0.45420
C         54.00531        26.73171         0.06161
C         55.08421        28.86720         0.57736
C         53.85701        29.57145         0.37448
C         55.03688        31.69920         0.85170
C         53.83623        30.99180         0.50109
C         54.95839        33.14520         1.10232
C         53.79492        33.83162         0.82576
C         54.93458        36.01529         1.33517
C         53.64311        35.25297         1.29204
C         54.92409        37.42815         1.16353
C         53.75687        38.10422         0.66134
C         54.96495        40.25773         0.71449
C         53.82196        39.49061         0.37080
C         54.95794        41.70980         0.60700
C         53.81506        42.39565         0.14405
C         54.91449        44.56018         0.54948
C         53.77256        43.81483         0.12924
C         54.89455        45.97069         0.45660
C         53.79138        46.62395        -0.07207
C         56.24206        29.57771         0.89115
C         56.21687        30.97567         1.02828
C         56.08444        33.87911         1.63055
C         56.08843        35.26272         1.66444
C         56.08759        38.20866         1.42452
C         56.09275        39.57175         1.24761
C         56.07497        42.48320         1.05282
C         56.05994        43.85596         1.01922
O         50.88174        39.59002        -1.92025
O         53.15171        40.83088        -1.59576
O         36.35389        25.76796         1.14940
O         34.98434        24.84707        -2.04055
O         32.35287        41.82183         2.17523
O         39.15964        42.01397        -1.73999
O         42.04921        42.01715        -2.28150
O         28.71568        29.73765        -1.97501
O         44.66838        35.74455        -2.24447
O         29.92037        30.85457         1.45234
O         40.61346        35.88695         1.61607
H         39.88696        36.38838         2.04499
O         52.99337        33.35783        -1.35710
H         52.28705        32.91620        -1.87541
O         33.19045        40.29705        -1.13107
H         32.41968        40.72712        -1.55810
O         34.18051        48.45339         2.54860
H         33.59849        47.76405         2.94910
O         36.19157        48.04629        -1.50003
H         36.22932        48.95887        -1.85841
O         33.92623        39.52135         2.36055
H         34.55854        38.90185         2.77965
O         35.43630        44.41268         2.52107
H         34.65023        44.91606         2.85307
O         32.98358        45.95967         2.81996
H         32.16672        45.49418         3.10721
O         49.78863        36.20057         1.98607
H         50.67259        36.30147         2.40308
O         46.13101        31.01611         1.59811
H         46.03484        31.97813         1.81643
O         49.95866        27.71539         1.56131
H         49.93004        26.85700         2.03496
O         34.30290        31.26243        -2.05075
H         33.61302        30.74240        -2.51462
O         30.65451        37.44257         2.24053
H         29.89920        37.01199         2.69228
O         34.28551        44.08826        -0.95534
H         33.52336        43.65064        -1.38773
O         38.32344        44.54325         2.12210
H         37.47442        44.66278         2.61222
O         44.07463        30.66197        -2.38450
H         44.05977        31.57156        -2.78105
O         27.49683        31.40009         1.90410
H         28.36753        31.34383         2.36675
O         51.73226        46.40217        -2.61191
H         50.96012        46.77009        -3.09180
O         50.28615        28.68982        -1.96330
H         51.03763        28.07863        -2.16993
O         52.72504        27.36576        -1.84383
H         53.50351        27.87773        -2.15101
O         42.57921        48.80712        -2.64854
H         43.37346        49.24500        -3.02277
O         46.03086        33.86455         1.44582
H         46.77643        34.34766         1.86603
O         37.02862        30.90820         1.69534
H         36.56224        30.18876         2.17187
O         38.29228        40.18397         1.98428
H         37.61280        40.70174         2.46916
O         31.40818        38.00053        -1.29599
H         32.18705        38.43148        -1.71454
O         53.21236        35.14653         2.72734
H         53.94825        34.70496         3.20542
O         49.16512        26.36246        -1.77403
H         48.36084        25.91107        -2.10417
O         44.01017        33.36665        -2.65391
H         44.49181        34.12437        -3.07072
O         35.40077        33.01982         2.06098
H         36.15766        32.42598         2.29515
O         37.41732        31.51169        -1.88139
H         38.13237        31.94628        -2.39056
H         27.00803        26.94380        -1.30078
H         25.70976        29.20178        -1.07016
H         25.64535        31.38686        -0.05846
H         25.74210        33.31582         0.32918
H         25.75445        35.75267         0.35636
H         25.76355        37.65333         0.13694
H         25.77852        40.07992         0.21568
H         25.80416        41.99284         0.34933
H         25.86005        44.44668         0.47496
H         27.08155        46.56304         0.65422
H         29.08500        25.70321        -1.15268
H         29.19544        47.80341         0.77053
H         32.74989        23.44145        -1.08116
H         30.68228        24.70697        -0.96228
H         32.96642        49.83709         0.19627
H         30.88452        48.59070         0.15394
H         34.47808        22.33980        -0.65253
H         34.71209        50.82305         1.15386
H         36.57047        21.19798        -0.20698
H         36.70184        52.06270         0.41945
H         40.35786        19.08180         0.01827
H         38.22082        20.26893        -0.19537
H         40.41058        54.20797        -0.17766
H         38.27661        53.00759         0.01286
H         42.80935        19.10933         0.25663
H         42.87158        54.17793        -0.40634
H         44.92857        20.34238         0.40995
H         44.97135        52.93251        -0.70371
H         48.62470        22.56413         0.72592
H         46.53091        21.32069         0.68453
H         48.62685        50.75226        -1.20251
H         46.53221        51.97376        -1.18539
H         50.23709        23.63631         1.00069
H         50.23849        49.83057        -0.83284
H         52.35119        24.73800         0.39438
H         52.33783        48.65997        -0.96920
H         56.03047        26.88983         0.69012
H         54.07250        25.64085        -0.05929
H         55.77520        46.54530         0.77758
H         53.82406        47.71745        -0.16553
H         57.18653        29.03525         1.04224
H         57.15175        31.49098         1.28629
H         57.00633        33.34376         1.89367
H         57.03140        35.77444         1.90483
H         56.99418        37.72183         1.80765
H         57.00615        40.12443         1.50109
H         56.97919        41.98109         1.41977
H         56.94079        44.42663         1.34701
