         272
 CSIRO Nanostructure Databank - Neutral Graphene Oxide Data Set
C        -11.09535         0.68078         0.33323
C         -9.87932         1.49655         0.72684
C         -8.61220         0.78555         0.20106
C         -7.63064         1.54400        -0.65610
C         -6.48127         0.78145        -1.38081
C         -5.10426         1.51794        -1.42430
C         -3.79225         0.77818        -1.56302
C         -2.45796         1.56628        -1.58735
C         -1.13241         0.80867        -1.45944
C          0.14190         1.56357        -1.11216
C          1.39558         0.84029        -0.62033
C          2.43340         1.58033         0.17332
C          3.50735         0.78861         0.89875
C          4.83019         1.49277         1.13309
C          6.13031         0.74899         1.17068
C          7.36741         1.38466         0.55930
C          8.69417         0.74115         0.98941
C          9.91071         1.46770         0.49519
C         11.08954         0.65508         0.10750
C         -9.94814         2.93989         0.36231
C         -8.73420         3.78798         0.27497
C         -7.53412         2.99924        -0.29154
C         -6.14461         3.51696        -0.06040
C         -4.96619         2.85719        -0.71624
C         -3.76824         3.74901        -1.01376
C         -2.46859         3.08243        -1.46389
C         -1.14738         3.84293        -1.29443
C          0.14314         3.08489        -1.05670
C          1.36549         3.76069        -0.45899
C          2.37878         2.94431         0.28732
C          3.54759         3.71823         0.81433
C          4.83871         2.99154         0.99215
C          6.14430         3.70518         0.73994
C          7.41167         2.91481         0.63437
C          8.58900         3.50901        -0.06795
C          9.73567         2.79724        -0.15431
C         -8.33625         4.56545         1.57076
C         -7.23101         5.51345         1.16722
C         -5.99676         4.84219         0.67039
C         -4.74983         5.63866         0.53730
C         -3.73921         5.16478        -0.48197
C         -2.47712         5.99365        -0.62465
C         -1.19733         5.33096        -1.03451
C          0.18028         6.05152        -1.02540
C          1.32925         5.26870        -0.34821
C          2.31787         5.99789         0.53586
C          3.57471         5.23506         0.80483
C          4.91092         5.92017         0.56758
C          5.99796         5.00694        -0.06822
C          7.31104         5.74306        -0.31911
C          8.42306         4.82635        -0.80303
C         -7.32127         6.85825         1.22376
C         -6.13892         7.80731         1.13333
C         -4.78441         7.09103         0.95910
C         -3.57511         7.94167         0.74498
C         -2.29962         7.24211         0.24114
C         -1.26653         8.19147        -0.33351
C          0.04165         7.53454        -0.61385
C          1.09065         8.23393         0.26949
C          2.40031         7.49196         0.41298
C          3.69146         8.17012         0.12965
C          4.94498         7.34425         0.11567
C          6.02906         7.81481        -0.83641
C          7.32402         7.06165        -0.61630
C         -6.21075         8.91483         0.09828
C         -5.13156         9.67855        -0.13400
C         -3.80554         9.47524         0.60318
C         -2.65093        10.23740        -0.09815
C         -1.27118         9.63449         0.08047
C         -0.11416        10.36326         0.07552
C          1.19488         9.70427        -0.06120
C          2.38568        10.27627        -0.38361
C          3.60507         9.42852        -0.73911
C          4.97503        10.08309        -0.72466
C          6.08890         9.33135        -0.79449
C        -11.06846        -0.65807         0.39423
C         -9.83640        -1.37952         0.92811
C         -8.58218        -0.70090         0.32950
C         -7.59224        -1.49372        -0.47830
C         -6.41469        -0.76006        -1.07838
C         -5.07594        -1.52736        -1.27340
C         -3.78234        -0.66599        -1.12024
C         -2.46148        -1.36683        -0.96385
C         -1.15955        -0.74062        -1.48063
C          0.06036        -1.38952        -0.76513
C          1.38942        -0.66329        -0.63701
C          2.55084        -1.43131        -0.02233
C          3.51304        -0.72502         0.89733
C          4.78759        -1.50262         1.26219
C          6.10611        -0.76523         1.26026
C          7.42497        -1.50308         1.13979
C          8.73566        -0.76880         1.13179
C         10.03859        -1.54742         0.80353
C         11.11708        -0.68217         0.18948
C         -9.85473        -2.87692         0.74846
C         -8.73052        -3.61097         0.45091
C         -7.54103        -2.96681        -0.16466
C         -6.22842        -3.66235        -0.13776
C         -5.00282        -2.80999        -0.37895
C         -3.70432        -3.54569        -0.40516
C         -2.49471        -2.88598        -1.01378
C         -1.20828        -3.65144        -1.09461
C          0.04439        -2.89054        -0.69543
C          1.35348        -3.64269        -0.65164
C          2.56790        -2.92295        -0.10765
C          3.55842        -3.73185         0.68591
C          4.80220        -3.06014         1.31021
C          6.08816        -3.67003         0.71613
C          7.36245        -2.91367         0.62594
C          8.63992        -3.65702         0.39756
C          9.74837        -2.76232        -0.12045
C         -8.65948        -5.02728         0.62947
C         -7.43456        -5.74112         0.64352
C         -6.13902        -4.93341         0.72813
C         -4.86787        -5.74380         0.44063
C         -3.68796        -5.04066        -0.16779
C         -2.56961        -5.84052        -0.75927
C         -1.22573        -5.15026        -0.91702
C          0.03733        -5.89435        -0.63494
C          1.33897        -5.14055        -0.66467
C          2.55476        -5.93613        -0.32785
C          3.66688        -5.18230         0.34966
C          4.98609        -5.93925         0.37997
C          6.19877        -5.16682         0.85262
C          7.52379        -5.88833         0.69903
C          8.69530        -5.01153         0.38218
C         -7.44942        -7.13138         0.72795
C         -6.24032        -7.96236         0.76899
C         -4.94102        -7.25866         0.49975
C         -3.87373        -8.05142        -0.20178
C         -2.59202        -7.32651        -0.50641
C         -1.41306        -7.83203         0.25837
C         -0.05098        -7.21885         0.08174
C          1.15922        -8.08269         0.23652
C          2.47312        -7.38134         0.05167
C          3.55277        -7.86739         0.94576
C          4.71522        -7.21953         1.11917
C          6.55416        -8.23775         0.57279
C          7.48114        -7.30601         0.17936
C         -6.26390        -9.44466         0.60372
C         -5.16333       -10.16836         0.30702
C         -3.91311        -9.55434        -0.23731
C         -2.69036       -10.43046        -0.39710
C         -1.41594       -10.10519        -0.61744
C         -0.12024        -9.96806        -0.88916
C          1.04389        -9.66239         0.11189
C          2.38890       -10.20004        -0.42180
C          3.57154        -9.91325         0.20256
C          4.93417       -10.09217        -0.34345
C          6.13169        -9.42741        -0.19111
O         -7.06211        -3.77779        -1.31245
O          8.18005        -1.29861         2.37830
O         -0.69000         8.18859        -1.68611
O         -1.98503        -3.33964        -2.29111
O         -0.20701         3.59991        -2.36511
O         -4.14791        -2.80822         0.77831
O          5.56927         1.27962         2.38303
O         -7.50418        -1.31760        -1.90616
O         -3.74537        -5.31390         1.27185
O         -2.05119         6.04345        -1.99850
O          1.56197        -4.37055        -1.88812
O          9.52368         1.46181         1.92356
O         -4.93061         4.75067         1.68172
O          7.06601         3.62812         1.85774
O          6.47293        -3.07498        -0.55550
O         -5.96102        -4.53474         2.13590
O         -2.70737        -6.77884        -1.85195
O          5.39089         6.93164         1.45625
O         -8.03650         2.57772        -1.59870
O          2.65345         5.60504         1.88799
O         -4.53562         1.22128        -2.72283
O          3.14669         8.18518         1.46203
O          2.08552         4.58951        -1.41152
O          3.27505        -2.12138        -1.09681
O         -4.31647        -8.74298        -1.40944
O          0.59441        -7.39298         1.38934
O         -5.29436         2.54235         0.67267
O         -1.64587        -8.45714         1.29117
O         -4.26974         4.87149        -1.80960
O         -5.26855        -7.63672         1.85828
O          0.49930         8.12108         1.55494
O         -0.18229         1.19285        -2.48150
O          5.53253         4.68111        -1.35818
O          5.77647        -7.91578         1.71395
O         -7.87471         0.14559         1.29728
O         -0.23246        -2.07170         0.49150
O         -3.08493        -0.72156         0.16650
O          2.93390         0.00871         2.00200
O          2.87473        -6.98427        -1.31033
O          3.04544        -4.72803         1.60471
O         -3.90149         7.40964         2.06774
O          5.39865        -1.08140         2.50050
O          4.04942         3.41066         2.15545
O          1.91148         0.07292        -1.76708
O         -2.49390         2.43792        -2.75082
O          6.91198        -5.63857         2.00921
O          3.45157        -9.19316         1.41446
O         -0.51099        -5.88126        -1.97260
O         -5.05349        -1.98589        -2.62934
H         -5.96963        -2.26910        -2.86112
O         -1.64891         6.67581         1.41050
H         -0.97078         7.32282         1.76904
O         -6.94058         0.83158        -2.74378
H         -6.20220         0.54830        -3.32888
O         -8.99790         4.84314        -0.68119
H         -9.10529         4.41434        -1.55978
O          5.58925         7.41066        -2.17386
H          5.52878         6.41401        -2.16524
O         -9.82604        -1.21674         2.36171
H         -9.73138        -0.24604         2.54985
O         -1.07559        -1.10576        -2.86005
H         -0.45425        -0.48114        -3.30348
O          5.33763        -6.22575        -1.00605
H          4.56484        -6.64008        -1.46553
O         -9.81718         1.52338         2.19279
H         -9.05335         2.09941         2.45865
O          3.34562         8.97163        -2.09345
H          4.13371         8.44699        -2.39753
O         -6.13778         8.45527         2.43624
H         -5.64094         7.87188         3.05348
O          0.57167         6.11822        -2.40135
H         -0.17332         6.52208        -2.89982
O         -3.92081        10.05080         1.90767
H         -4.69699         9.62649         2.35065
O         10.58731        -2.06684         2.02707
H          9.90110        -1.97375         2.72829
O          7.22138         1.06461        -0.85542
H          7.86580         1.59608        -1.37341
O         -7.05067        -3.62706         2.47151
H         -6.85675        -3.44034         3.42279
O         -2.92116        10.19850        -1.51085
H         -2.08137        10.31995        -2.00093
O         -7.88607         3.63189         2.55035
H         -6.90462         3.58567         2.54754
O          8.04149         4.48915        -2.15070
H          7.03973         4.42365        -2.15687
O          9.31730        -2.22189        -1.37704
H          8.78589        -2.89351        -1.85260
O          0.76052       -10.19048         1.38737
H          0.04604        -9.64690         1.79246
O          4.78227        -3.45365         2.68399
H          5.19856        -2.73331         3.21515
H         12.02037        -1.21994        -0.13719
H         11.94778         1.19286        -0.32496
H         10.60117         3.21501        -0.69233
H          9.39869         5.37526        -0.84324
H          8.26134         7.53805        -0.94769
H          7.07877         9.81277        -0.82279
H          5.04944        11.18161        -0.70728
H          2.44174        11.35995        -0.57711
H         -0.15804        11.46083         0.16262
H         -2.66551        11.30272         0.26255
H         -5.19700        10.50809        -0.85353
H         -7.16344         9.11156        -0.41587
H         -8.25904         7.31257         1.58183
H         -9.22367         5.11521         1.96746
H        -10.92535         3.44601         0.39407
H        -12.00144         1.21333         0.00729
H        -11.96193        -1.24564         0.13496
H        -10.73137        -3.39964         1.16228
H         -9.59069        -5.57874         0.83328
H         -8.42291        -7.64408         0.67115
H         -7.19508        -9.96107         0.88272
H         -5.22441       -11.26762         0.31915
H         -2.90533       -11.50991        -0.27594
H          0.17235        -9.96649        -1.95733
H          2.38914       -10.73710        -1.38216
H          4.96507       -10.87707        -1.11997
H          6.92093        -9.78513        -0.87657
H          8.10126        -7.51237        -0.70669
H          9.64049        -5.50294         0.09905
H         10.69453        -3.35815        -0.25448
