         210
 CSIRO Nanostructure Databank - Neutral Graphene Oxide Data Set
C         30.30705        31.71456         0.50150
C         30.44250        32.94271         0.60565
C         30.45934        36.10441         0.55849
C         30.46374        37.35178         0.47579
C         30.57527        40.45045         0.20769
C         30.53259        41.69506        -0.11149
C         32.74374        28.92512         0.33736
C         31.61033        29.43125         0.35242
C         32.75228        31.57949         0.70906
C         31.46971        30.89461        -0.02110
C         32.79227        33.09727         0.56151
C         31.57700        33.82381         0.64753
C         32.81351        35.96776         0.54458
C         31.57361        35.22819         0.58735
C         32.81876        37.40204         0.49300
C         31.63378        38.16495         0.43454
C         32.93400        40.29520         0.11055
C         31.66186        39.59566         0.30300
C         32.96138        41.82684         0.08290
C         31.58411        42.52421        -0.36598
C         32.95513        44.34730        -1.10843
C         31.85007        43.82270        -0.85183
C         35.45078        27.35169         0.02678
C         35.28362        28.75244         0.15725
C         34.07785        29.45134         0.34725
C         35.28226        31.56770         0.25538
C         34.06714        30.87152         0.39302
C         35.25446        33.04208         0.14078
C         34.01131        33.80589         0.45566
C         35.29744        35.95525         0.37203
C         34.03703        35.22280         0.49389
C         35.32411        37.32146         0.27817
C         34.12185        38.14601         0.67280
C         35.39068        40.20094        -0.13934
C         34.11817        39.56937         0.13800
C         35.37782        41.56863        -0.67911
C         34.18071        42.39919        -0.61265
C         35.52145        44.38635        -1.21631
C         34.25754        43.71906        -1.06846
C         35.69452        45.81732        -1.41755
C         37.80839        27.32977        -0.30509
C         36.53009        26.75866        -0.22577
C         37.79620        28.74271        -0.03634
C         36.54558        29.45228         0.11000
C         37.79990        31.58346         0.20546
C         36.53428        30.87587         0.16825
C         37.82432        32.99412         0.28807
C         36.56814        33.76126         0.12559
C         37.87276        35.86607         0.36527
C         36.56640        35.17572         0.65410
C         37.88483        37.29497         0.00918
C         36.57687        38.03799        -0.05487
C         37.89068        40.19468        -0.16099
C         36.60623        39.51842        -0.08635
C         37.95349        41.58026        -0.35565
C         36.75632        42.29838        -0.82259
C         37.97336        44.52188        -0.48724
C         36.72579        43.75315        -0.89880
C         38.12323        45.91539        -1.15347
C         36.81062        46.36636        -1.47282
C         40.33713        24.62541        -0.85512
C         39.25271        25.23021        -0.81051
C         40.37276        27.35499        -0.42085
C         39.03830        26.66925        -0.73585
C         40.29770        28.64725         0.37654
C         39.03362        29.44468         0.11231
C         40.28079        31.56256         0.47251
C         39.04052        30.85065         0.26407
C         40.24831        32.96546         0.60509
C         39.03537        33.69528         0.49205
C         40.31890        35.88675         0.51548
C         39.05180        35.15970         0.46791
C         40.32946        37.31703         0.43182
C         39.13310        38.05844         0.18393
C         40.37054        40.18004         0.21691
C         39.12766        39.45716         0.07843
C         40.41382        41.59513         0.04798
C         39.19434        42.32121        -0.27101
C         40.53915        44.38015        -0.58401
C         39.23186        43.68961        -0.51416
C         40.62239        45.84855        -0.91436
C         39.31755        46.56765        -1.18792
C         40.66057        48.60165        -1.21383
C         39.62198        47.94324        -1.40800
C         42.89167        24.54076        -0.31437
C         41.62289        25.13846        -0.47760
C         42.81771        27.28220         0.03340
C         41.62381        26.55894        -0.27168
C         42.81293        28.73194         0.18894
C         41.58211        29.43963         0.26936
C         42.79740        31.53605         0.53517
C         41.55602        30.83980         0.45046
C         42.80088        32.96453         0.88824
C         41.47830        33.71839         0.92614
C         42.75903        35.87396         0.89665
C         41.51537        35.18414         0.75468
C         42.73676        37.29474         0.89203
C         41.55243        38.02535         0.62346
C         42.78394        40.19216         0.71481
C         41.56589        39.46675         0.52960
C         42.81433        41.61128         0.60988
C         41.62597        42.31095         0.25711
C         42.84895        44.46080         0.36691
C         41.69923        43.73143         0.05932
C         42.89832        45.91212         0.15434
C         41.82614        46.61927        -0.46883
C         43.06414        48.64382        -0.22142
C         41.87070        48.04970        -0.65821
C         43.91786        25.20999        -0.02974
C         45.29253        27.32038         0.24559
C         44.07582        26.60135         0.12293
C         45.31214        28.74715         0.25952
C         44.05011        29.44538         0.26166
C         45.28471        31.62068         0.44090
C         44.03749        30.86900         0.39414
C         45.26207        33.01395         0.55738
C         44.04075        33.73752         0.74023
C         45.26044        35.86735         0.73386
C         44.01819        35.13888         0.88643
C         45.29033        37.30357         1.00286
C         43.96460        38.04932         1.16728
C         45.22226        40.17884         1.09473
C         43.99931        39.50160         0.98734
C         45.24116        41.62153         1.09922
C         44.02962        42.33062         0.84791
C         45.20738        44.44203         1.23494
C         44.03427        43.75971         0.82913
C         45.06811        45.94724         1.51106
C         44.06038        46.60519         0.61784
C         43.96878        47.96790         0.35484
C         47.67990        27.39559         0.22869
C         46.60061        26.76924         0.26093
C         47.82686        28.80901         0.18801
C         46.55477        29.47959         0.25330
C         47.78587        31.60523         0.22450
C         46.55913        30.90865         0.31336
C         47.81171        33.06681         0.43300
C         46.53421        33.77687         0.84177
C         47.58784        35.99073        -0.08247
C         46.46293        35.23975         0.43336
C         47.55051        37.44937        -0.02551
C         46.46627        38.07878         0.62879
C         47.68210        40.19870         0.86749
C         46.47137        39.46906         0.92831
C         47.74110        41.53099         1.56391
C         46.44873        42.32447         1.33433
C         47.67971        44.42753         1.89212
C         46.40663        43.72565         1.48053
C         47.48359        45.86685         1.78466
C         46.47811        46.48218         1.41704
C         50.32471        29.00349        -0.24699
C         49.02636        29.52437        -0.00664
C         50.21191        31.70079        -0.49055
C         49.02544        30.95780        -0.07189
C         50.12098        33.11125        -0.72756
C         48.95614        33.84183        -0.15558
C         49.64149        35.76200        -1.47800
C         48.70521        35.24431        -0.57066
C         49.61935        37.95290        -1.31077
C         48.64175        38.33140        -0.38236
C         50.00595        40.38785        -0.00256
C         48.78948        39.63751         0.20923
C         50.08768        41.74777         0.52150
C         48.99438        42.31318         1.21145
C         50.28024        44.35832         1.47745
C         49.00803        43.69781         1.75523
C         51.37122        29.58899        -0.60079
C         52.45012        31.83678        -1.32771
C         51.45035        30.99505        -0.80478
C         52.31489        33.07189        -1.53293
C         51.18232        33.87892        -1.30053
C         51.81826        36.31758        -2.04141
C         50.95802        35.25872        -1.65642
C         51.82447        37.56966        -1.94264
C         50.92165        38.50712        -1.36284
C         52.22209        40.62275        -0.74066
C         51.09620        39.77346        -0.71861
C         52.33072        41.81969        -0.35856
C         51.32353        42.53203         0.30294
C         51.19406        43.85683         0.79447
O         42.10991        33.25174         2.16285
O         36.08806        41.65881        -1.94950
O         39.79238        27.40845        -1.74940
O         40.89454        44.86059        -1.96127
O         48.89894        33.56029         1.29875
O         44.73133        37.60634         2.32616
O         37.20836        37.51755        -1.29264
O         49.28946        36.91648        -2.19952
O         48.35496        43.89130         3.04625
O         35.87309        33.52959        -1.12338
O         40.21108        28.20642         1.77423
H         40.24611        29.00161         2.34731
O         32.50638        31.33192         2.11491
H         33.23014        31.73322         2.63826
O         31.56603        31.03902        -1.39879
H         30.79510        30.62473        -1.83632
O         47.79875        41.23001         2.99164
H         47.90564        42.08910         3.46712
O         33.10140        42.22028         1.47742
H         32.30744        41.90890         1.96265
O         44.61069        46.08326         2.85849
H         44.44374        47.03161         3.03979
O         36.52603        34.99677         2.11631
H         36.44400        35.88112         2.53343
O         46.56073        33.82324         2.30465
H         47.48893        34.03048         2.56202
O         34.29632        38.30252         2.13787
H         33.50427        38.76827         2.48271
O         37.77218        44.84045         0.93377
H         36.96021        45.38912         1.00126
