         480
 CSIRO Nanostructure Databank - Neutral Graphene Oxide Data Set
C         40.14427        49.44411        -3.85853
C         39.37395        49.77086        -4.97445
C         38.31818        51.55437        -3.73184
C         38.44567        50.81437        -4.90783
C         40.81915        48.24684        -1.33124
C         40.81018        49.69967        -1.48160
C         40.03456        50.16841        -2.65475
C         40.11925        52.67472        -1.08652
C         39.12069        51.23842        -2.62843
C         40.13906        54.03662        -1.22859
C         42.50958        48.38673         0.43104
C         41.51140        47.63420        -0.35260
C         42.37205        49.91709         0.51371
C         41.40884        50.48593        -0.52875
C         42.45106        52.78865        -0.02787
C         41.21598        51.95084        -0.42260
C         42.49220        54.18360        -0.51679
C         41.32992        54.77553        -0.98043
C         45.26170        45.71873         0.39702
C         44.06843        46.31027         0.25537
C         45.04638        48.57224         0.80845
C         43.84581        47.72493         0.64273
C         44.96117        50.00206         0.72948
C         43.72615        50.66648         0.43940
C         44.92691        52.81643         0.36592
C         43.72744        52.06142         0.25388
C         44.86441        54.33458         0.37688
C         43.74268        54.91083        -0.46009
C         45.07549        56.92317        -0.88868
C         43.86828        56.17377        -0.99070
C         47.30531        44.38533         2.04974
C         47.21548        45.87536         2.08209
C         46.49339        46.46222         0.81623
C         47.39278        48.70293         1.44586
C         46.27615        47.94268         1.04482
C         47.38819        50.10717         1.28177
C         46.17266        50.76060         0.84660
C         47.40739        52.93524         0.67951
C         46.13652        52.16861         0.65618
C         47.35822        54.41190         0.58495
C         46.20467        55.02661         0.16168
C         47.48954        57.16463        -0.35288
C         46.21486        56.38992        -0.33207
C         47.72837        58.14251        -1.42582
C         49.75198        44.41736         1.86958
C         48.48310        43.72933         1.93170
C         49.75320        45.85831         1.98028
C         48.55576        46.56109         2.10684
C         49.83095        48.74033         2.01626
C         48.51513        48.05757         2.24415
C         49.81401        50.16295         1.85050
C         48.59732        50.83159         1.52209
C         49.87661        53.01308         1.50991
C         48.67373        52.24486         1.13021
C         49.83162        54.49388         1.40655
C         48.59212        55.18545         0.89905
C         50.04263        57.05659        -0.14250
C         48.72151        56.56562         0.30320
C         50.14280        58.15844        -0.97173
C         48.96311        58.65425        -1.65219
C         52.15700        41.58206         1.33285
C         51.01982        42.26900         1.59532
C         52.19756        44.44123         1.70460
C         50.97159        43.71913         1.69277
C         52.21272        45.83571         1.92959
C         51.01517        46.56476         2.01057
C         52.27952        48.72006         1.93412
C         51.03188        48.01876         2.02257
C         52.28888        50.17268         1.96731
C         51.03733        50.89269         1.92861
C         52.28919        53.08369         2.15184
C         51.02504        52.33413         1.88108
C         52.39898        54.50658         1.68623
C         51.14391        55.24277         1.30784
C         52.58648        56.91698        -0.00637
C         51.25545        56.49239         0.48699
C         52.64325        58.03564        -0.82553
C         51.45357        58.74650        -1.23922
C         52.83615        60.61021        -2.05862
C         51.58004        59.99205        -1.84743
C         54.74372        40.16020         0.79016
C         54.71097        41.54869         0.98290
C         53.41403        42.27967         1.00392
C         54.74871        44.46049         1.42402
C         53.44566        43.75554         1.30535
C         54.73059        45.80566         1.63619
C         53.52833        46.52046         2.21516
C         54.72657        48.68792         1.88645
C         53.50882        48.00769         1.92881
C         54.80297        50.17799         1.74782
C         53.49727        50.86224         2.00676
C         54.85514        52.98022         2.07336
C         53.55486        52.29299         2.46629
C         54.90136        54.32911         1.56801
C         53.71060        55.05336         1.25911
C         55.06283        56.78032         0.17796
C         53.78138        56.23506         0.47359
C         55.20063        57.92903        -0.73093
C         53.94266        58.56238        -1.28807
C         55.32659        60.55207        -1.93574
C         54.02105        59.94672        -1.78550
C         55.52010        61.66664        -2.75304
C         57.18377        40.16233         0.84265
C         55.96520        39.51729         0.58255
C         57.11121        41.49885         1.31039
C         55.92592        42.26568         1.12593
C         57.12803        44.44125         0.70590
C         55.98235        43.73362         1.06459
C         57.16956        45.88029         0.97381
C         55.88098        46.63348         1.15234
C         57.17762        48.64662         1.99086
C         55.96651        47.99317         1.79213
C         57.25673        50.04598         2.32022
C         55.95599        50.78382         2.58593
C         57.30794        52.88513         2.11357
C         56.03277        52.25965         2.24950
C         57.38534        54.22660         1.65605
C         56.17443        54.91600         1.29586
C         57.51870        56.85681         0.47845
C         56.24938        56.19478         0.66799
C         57.59495        58.15265        -0.02797
C         56.42445        58.75330        -0.63995
C         57.65355        60.89758        -1.00771
C         56.46669        59.99689        -1.23272
C         57.87229        61.89854        -2.11942
C         56.78949        62.26783        -2.90186
C         59.87286        37.51063         0.76106
C         58.68787        38.13978         0.92163
C         59.70286        40.28883         0.13589
C         58.42314        39.46751         0.24881
C         59.71542        41.68307        -0.01049
C         58.50204        42.44015        -0.46815
C         59.62035        44.54687         0.30086
C         58.31811        43.93836        -0.16204
C         59.59845        46.01584         0.50297
C         58.33167        46.60956         0.96986
C         59.71989        48.55712         2.03366
C         58.41572        47.88190         1.74211
C         59.74154        49.93794         2.69525
C         58.46323        50.71501         2.44816
C         59.74096        52.85145         2.43651
C         58.51823        52.16123         2.39393
C         59.81222        54.22075         2.04324
C         58.65014        54.85206         1.53006
C         59.97335        56.95137         1.08500
C         58.79748        56.09295         0.69364
C         60.00992        58.31653         0.61491
C         58.84870        58.88134        -0.02872
C         60.11564        60.92152        -0.57443
C         58.91571        60.18015        -0.58199
C         60.20769        62.17632        -1.29897
C         59.13023        62.60258        -2.14260
C         60.45007        64.52841        -2.84346
C         59.30266        63.76334        -2.93354
C         62.25529        35.94794        -0.20432
C         62.07718        37.39453        -0.49592
C         60.96387        38.16324         0.06872
C         62.13903        40.30857        -0.36305
C         60.93483        39.56831        -0.03137
C         62.17943        41.73587        -0.08261
C         60.94987        42.41283         0.15072
C         61.92809        44.60148         0.96437
C         60.79449        43.84307         0.45956
C         62.08968        45.94339         0.84195
C         60.88586        46.76964         0.68155
C         62.14818        48.71094         1.58767
C         60.95639        48.07120         1.39009
C         62.18137        50.07129         2.11128
C         61.02588        50.70959         2.45272
C         62.24019        52.92311         2.56600
C         61.00581        52.14417         2.92835
C         62.22462        54.37683         2.92393
C         61.02798        54.98815         2.18219
C         62.22652        57.19146         2.08706
C         61.06236        56.33768         1.73294
C         62.26852        58.62207         1.60567
C         61.15673        59.12308         0.77245
C         62.43142        61.19481         0.23351
C         61.26638        60.41954         0.15002
C         62.45404        62.63324        -0.22595
C         61.37939        62.96315        -1.22838
C         62.69723        64.98107        -1.85334
C         61.49151        64.16511        -1.95738
C         62.74814        66.29580        -2.35078
C         64.74949        36.13042        -0.30147
C         63.45707        35.35769        -0.23765
C         64.64307        37.52071        -0.90644
C         63.31804        38.18035        -0.96173
C         64.45862        40.38249        -1.25810
C         63.27807        39.64011        -0.80517
C         64.55077        41.78799        -0.89437
C         63.48440        42.35678        -0.18732
C         64.67569        44.52915        -0.07531
C         63.78297        43.62597         0.42086
C         64.53528        45.99906         0.13572
C         63.43100        46.58465         0.98773
C         64.61694        48.90096         0.94636
C         63.43944        48.04794         1.25704
C         64.68543        50.13260         1.51161
C         63.52230        50.76399         2.28237
C         64.72130        52.98522         2.00541
C         63.39538        52.25238         1.87003
C         64.68636        54.40310         2.28345
C         63.51409        55.05872         2.53828
C         64.83957        57.16096         2.12558
C         63.51353        56.53259         2.50330
C         64.85078        58.63165         1.81941
C         63.57367        59.37091         1.60643
C         64.93647        61.16673         0.37591
C         63.63138        60.79869         1.05963
C         65.01311        62.53964        -0.18453
C         63.83018        63.13365        -0.65206
C         65.11889        65.10298        -1.42959
C         63.88530        64.40822        -1.31534
C         65.14702        66.42217        -1.92181
C         63.93382        67.01727        -2.33954
C         66.93188        33.42827        -1.95484
C         65.84661        34.07258        -1.42586
C         67.12426        36.11731        -0.99104
C         65.93021        35.40086        -0.89727
C         67.11573        37.56974        -1.03609
C         65.81452        38.21730        -1.11936
C         67.02990        40.44546        -1.43985
C         65.79152        39.64844        -1.48672
C         66.93756        41.87525        -1.44757
C         65.74454        42.53312        -1.13896
C         66.95236        44.79617        -0.99851
C         65.62844        44.05190        -1.16756
C         66.93500        46.17193        -0.65887
C         65.68151        46.87822        -0.29963
C         67.05386        48.96018         0.27301
C         65.68657        48.40089        -0.02971
C         67.12365        50.32894         0.79082
C         66.00796        50.86354         1.65032
C         67.13381        53.13588         1.49332
C         65.89701        52.37762         1.62369
C         67.17888        54.52510         1.78245
C         65.90192        55.26152         2.06540
C         67.29559        57.28068         2.74493
C         66.00689        56.56062         2.86494
C         67.31339        58.57504         1.98598
C         66.04954        59.26735         1.66452
C         67.45470        61.28059         0.84491
C         66.18615        60.51054         0.85650
C         67.46640        62.59499         0.25696
C         66.28280        63.15678        -0.31048
C         67.57472        65.26463        -0.84637
C         66.41354        64.37068        -1.19137
C         67.57345        66.61362        -1.31809
C         66.40401        67.17266        -1.92013
C         67.62640        69.23960        -2.33798
C         66.47011        68.47307        -2.44206
C         69.42643        32.05570        -2.88987
C         69.48526        33.35627        -2.36634
C         68.28322        33.92687        -1.69246
C         69.65629        36.10960        -1.28914
C         68.36888        35.36210        -1.17061
C         69.60700        37.63933        -1.21520
C         68.28746        38.31884        -1.21930
C         69.50272        40.47579        -1.55698
C         68.26761        39.75284        -1.41126
C         69.47907        41.95420        -1.70833
C         68.16316        42.69131        -1.64254
C         69.43893        44.73568        -0.73622
C         68.15469        44.11607        -1.23066
C         69.46761        46.24639        -0.82297
C         68.16252        47.01539        -0.91576
C         69.47126        49.04249        -0.04119
C         68.17873        48.30966        -0.12915
C         69.37346        50.54171        -0.22446
C         68.24485        51.09611         0.61217
C         69.56372        53.16004         1.03611
C         68.32040        52.47406         1.07165
C         69.64421        54.48540         1.54773
C         68.44161        55.13944         1.94164
C         69.85283        57.20974         2.52242
C         68.54777        56.46981         2.58276
C         69.82163        58.72044         2.48935
C         68.60835        59.31258         1.83071
C         69.85944        61.44675         1.34898
C         68.61837        60.72650         1.37300
C         69.86708        62.78552         0.83445
C         68.68252        63.35119         0.27267
C         69.90454        65.50313        -0.10790
C         68.70732        64.70908        -0.23654
C         69.92349        66.85265        -0.57689
C         68.75285        67.41275        -1.18814
C         69.97033        69.56482        -1.54263
C         68.77540        68.74666        -1.69184
C         70.00896        70.90456        -1.99470
C         71.73918        32.17584        -3.56008
C         70.53956        31.46403        -3.48551
C         71.81418        33.46808        -3.05036
C         70.70085        34.09147        -2.44370
C         71.93267        36.24824        -2.15795
C         70.80491        35.47115        -1.95225
C         71.94107        37.65584        -1.97958
C         70.80092        38.37609        -1.66012
C         71.94483        40.59792        -1.79864
C         70.73814        39.82224        -1.67773
C         71.95566        41.95889        -1.65918
C         70.74282        42.70468        -1.48342
C         71.93181        44.82709        -1.07630
C         70.72023        44.06518        -1.20032
C         71.91120        46.16212        -0.79079
C         70.66889        46.89731        -0.72247
C         71.85017        49.21671        -0.87650
C         70.73130        48.35864        -0.43414
C         71.84866        50.54842        -0.60498
C         70.70559        51.22033        -0.01986
C         72.02186        53.17907         0.68143
C         70.76453        52.48833         0.54403
C         72.09565        54.44931         1.16120
C         70.92802        55.18131         1.58498
C         72.26216        57.28901         1.92866
C         71.03213        56.52662         1.95383
C         72.32468        58.62563         2.17231
C         71.10687        59.45696         2.33624
C         72.25458        61.59540         1.75825
C         71.07625        60.84659         1.78872
C         72.25458        62.92367         1.32990
C         71.08211        63.54239         0.87267
C         72.23809        65.73187         0.55675
C         71.08229        64.93106         0.44224
C         72.24757        67.04994         0.13006
C         71.10748        67.63885        -0.45336
C         72.27541        69.82911        -0.78192
C         71.12611        69.01568        -0.92342
C         72.28920        71.14018        -1.23438
C         71.14830        71.68171        -1.84516
O         69.91943        36.81753        -0.03534
O         62.99463        43.90857         1.53926
O         51.13375        56.53717         1.97193
O         62.33806        37.66054        -1.91935
O         54.74234        57.62384        -2.09841
O         42.83950        47.81805         1.73716
O         68.80799        42.41770        -2.94661
O         64.91392        40.00649        -2.59498
O         60.22083        46.78564        -0.62280
O         53.29458        43.24564        -0.09288
O         68.50179        34.21697        -0.26853
O         69.40938        56.55664         3.76127
O         65.58866        60.20765        -0.49242
O         57.77249        41.93399        -1.32365
O         64.52204        46.62012        -1.22052
O         70.39238        59.38250         3.64440
O         70.37822        48.59971         1.00591
O         38.94845        52.00031        -1.46469
O         48.88910        55.11754         2.34075
O         47.92529        57.59280         0.98037
O         62.65993        59.45286         2.76427
O         66.62018        57.08670         4.04831
O         59.19091        47.55939         2.99650
O         48.36608        52.42485        -0.34186
O         62.65001        57.12931         3.49194
O         68.14501        58.39539         0.77388
O         65.34011        56.25373         0.95599
O         41.40467        52.50433         0.92728
O         52.23097        54.17810         3.12616
O         63.80903        47.03873         2.32037
O         59.13482        55.57531        -0.66514
H         59.88901        54.95631        -0.56116
O         66.44114        50.57488         3.02259
H         65.68528        50.81222         3.61668
O         63.83188        50.75126         3.69963
H         63.65310        49.85122         4.04576
O         53.57242        52.20264         3.93904
H         53.26443        53.08302         4.26640
O         62.08223        54.55937         4.35567
H         61.54515        53.80783         4.70430
O         65.09330        44.35350        -2.47798
H         64.84087        45.30815        -2.47180
O         55.17307        50.44459         0.34691
H         54.80874        49.72177        -0.20787
O         66.77135        63.80575        -2.52484
H         66.12469        63.09351        -2.72054
O         53.70703        46.40208         3.67347
H         53.05914        47.00043         4.10306
O         63.09048        52.22177         0.43369
H         63.22548        53.12429         0.07478
O         57.27956        61.71639         0.16693
H         58.02810        62.32511         0.34838
O         48.15143        48.33390         3.65007
H         47.28806        47.87540         3.79859
O         62.12855        63.45570         0.95601
H         62.71511        63.12120         1.68326
O         69.01197        50.74915        -1.62778
H         68.87940        51.71022        -1.76716
O         55.47758        46.96181        -0.24410
H         55.62295        46.15634        -0.78791
O         41.82928        50.19596         1.81921
H         42.21729        49.53183         2.43365
O         65.08293        36.35733         1.11697
H         66.05567        36.47072         1.18561
O         55.71132        50.58626         3.99083
H         54.94781        51.16343         4.25272
O         60.90857        52.12907         4.39305
H         60.34303        51.35327         4.64030
O         58.15118        42.08833         1.98296
H         58.84699        41.42728         2.17419
O         69.41480        44.45929         0.72928
H         70.16682        44.94952         1.12816
O         63.65928        61.67880         2.24135
H         63.06954        61.24350         2.90683
O         47.46329        46.32207        -0.25343
H         47.06410        46.66577        -1.07940
O         65.35519        49.01891        -1.31128
H         64.60774        48.50212        -1.69294
O         68.05193        47.44703        -2.31801
H         67.29227        48.07010        -2.37367
O         59.75511        49.71974         4.14640
H         59.30311        48.85077         4.29603
O         58.00688        44.52119        -1.45873
H         57.54743        43.81888        -1.97613
O         58.04467        39.15272        -1.12292
H         57.86242        40.02026        -1.56248
O         44.51832        54.67064         1.76422
H         44.50498        55.64840         1.84034
O         46.40111        46.27400         3.22050
H         46.61707        45.68327         3.97196
H         40.85847        48.61058        -3.92162
H         39.48643        49.19347        -5.90190
H         37.59608        52.37773        -3.65884
H         37.82244        51.05549        -5.77966
H         40.12446        47.66820        -1.95596
H         39.26127        54.55224        -1.63808
H         41.39192        46.55820        -0.16935
H         41.32051        55.84275        -1.23808
H         45.38792        44.66071         0.12090
H         43.20513        45.71502        -0.07419
H         45.08668        57.93902        -1.30597
H         43.03213        56.63850        -1.53024
H         46.36528        43.81907         2.12921
H         46.89104        58.44617        -2.07000
H         48.46844        42.63115         1.90300
H         49.09073        59.39964        -2.44932
H         52.14324        40.48341         1.36376
H         50.10405        41.69651         1.79651
H         52.85344        61.64124        -2.43858
H         50.67980        60.56014        -2.11721
H         53.81064        39.59840         0.65415
H         54.68395        62.05933        -3.34783
H         55.98000        38.48383         0.21006
H         56.89013        63.06479        -3.65172
H         60.01961        36.49274         1.15062
H         57.85102        37.63087         1.42140
H         60.54073        65.43114        -3.46226
H         58.50326        64.09049        -3.61105
H         61.35179        35.33800        -0.05209
H         61.83670        66.77931        -2.72760
H         63.52889        34.27937        -0.03083
H         63.91779        68.05554        -2.69538
H         66.78734        32.51469        -2.54788
H         64.85006        33.62390        -1.54645
H         67.61780        70.25096        -2.76432
H         65.59881        68.91530        -2.94249
H         68.49297        31.48105        -2.81672
H         69.12759        71.35332        -2.47156
H         72.62559        31.71823        -4.02023
H         70.47311        30.44224        -3.88279
H         72.77196        33.99986        -3.12053
H         72.84467        35.80084        -2.57515
H         72.86813        38.18329        -2.24146
H         72.90306        40.07676        -1.92187
H         72.92280        42.47893        -1.66321
H         72.90181        44.33444        -1.22667
H         72.85636        46.71113        -0.68027
H         72.71710        48.75563        -1.37115
H         72.74228        51.13813        -0.85796
H         72.94703        52.66749         0.38484
H         73.08125        54.92772         1.23211
H         73.20502        56.76217         1.72346
H         73.30490        59.12331         2.14331
H         73.19700        61.15126         2.10563
H         73.20322        63.47451         1.35518
H         73.15687        65.32190         0.99535
H         73.17377        67.62694         0.24730
H         73.18034        69.43081        -0.30452
H         73.19241        71.75383        -1.11283
H         71.15571        72.72056        -2.20279
