         424
 CSIRO Nanostructure Databank - Neutral Graphene Oxide Data Set
C          1.37715         2.01970         1.08476
C          1.35168         3.37604         0.95799
C          2.60545         1.28502         1.02441
C          2.64138         4.11837         0.66566
C          1.41608         6.32995         0.66335
C          1.37119         7.71043         0.69612
C          2.61961         5.62194         0.90215
C          2.55262         8.46834         0.86233
C          1.31285        10.65872         0.74017
C          1.29768        12.04897         0.74201
C          2.53578         9.91219         0.77498
C          2.47827        12.81304         0.66243
C          1.28194        15.02907         0.78970
C          1.26555        16.38580         0.83231
C          2.50483        14.24464         0.69897
C          2.50253        17.17274         0.72081
C          2.56752        18.58920         1.15040
C          3.82757         1.95426         1.07420
C          3.78351         3.42872         1.41347
C          5.06343         1.30768         0.90734
C          5.09669         4.15224         1.23497
C          3.79984         6.33622         1.13780
C          3.79103         7.77149         1.05551
C          5.07401         5.62380         1.59159
C          5.00467         8.51845         1.07025
C          3.75422        10.61533         0.73520
C          3.75011        12.07149         0.32709
C          4.98763         9.91712         0.86923
C          5.00885        12.80735         0.69251
C          3.74403        14.91643         0.74493
C          3.79159        16.39037         0.70763
C          4.99431        14.20665         0.80603
C          4.99775        17.05483         1.33813
C          3.75276        19.23941         1.25783
C          5.02959        18.55100         1.13767
C          6.28400         2.02539         0.87298
C          6.26155         3.48185         1.04077
C          7.49966         1.36714         0.67187
C          7.58091         4.20015         1.22228
C          6.33075         6.35370         1.17575
C          6.32083         7.84743         1.39727
C          7.49309         5.68175         0.92658
C          7.50657         8.54587         0.78688
C          6.23495        10.64273         0.75318
C          6.23571        12.08785         0.72495
C          7.44961         9.92702         0.60879
C          7.45490        12.80147         0.76249
C          6.24123        14.93458         0.87070
C          6.27428        16.34638         0.97802
C          7.47350        14.21520         0.78001
C          7.48190        17.05809         0.88840
C          6.22181        19.20831         1.02130
C          7.48998        18.50658         0.92081
C          8.73405         2.06661         0.49690
C          8.75817         3.50140         0.58846
C          9.91627         1.37212         0.20458
C          9.90561         4.20930         0.24855
C          8.72591         6.38743         0.60218
C          8.71489         7.81105         0.53940
C          9.90603         5.66993         0.28035
C          9.92205         8.50483         0.23964
C          8.65454        10.70954         0.13299
C          8.73963        12.03005         0.89153
C          9.95459         9.95432         0.23505
C          9.96706        12.81228         0.49834
C          8.71240        14.93388         0.70483
C          8.71682        16.34951         0.72278
C          9.95235        14.21999         0.52758
C          9.94382        17.07324         0.59579
C          8.68977        19.19061         0.81068
C          9.94295        18.50598         0.64902
C         11.13506         2.06153        -0.02647
C         11.12109         3.50171        -0.07729
C         12.34582         1.36825        -0.23194
C         12.31745         4.19290        -0.36032
C         11.07802         6.37825        -0.08389
C         11.09382         7.77565        -0.05352
C         12.26318         5.66255        -0.68617
C         12.30478         8.55321        -0.50908
C         11.14078        10.64448         0.24252
C         11.17184        12.10196         0.28514
C         12.43301         9.86235         0.27501
C         12.38019        12.81488         0.13659
C         11.16713        14.94365         0.34585
C         11.16891        16.37301         0.40134
C         12.38810        14.23237         0.15846
C         12.39141        17.08636         0.26456
C         11.15742        19.20134         0.52806
C         12.39208        18.52131         0.33489
C         13.56513         2.05923        -0.40633
C         13.54539         3.50024        -0.46098
C         14.79898         1.37478        -0.54005
C         14.78940         4.21418        -0.56016
C         13.57766         6.37687        -0.47224
C         13.59551         7.77493        -0.43195
C         14.79336         5.64762        -0.51322
C         14.81569         8.48968        -0.47586
C         13.62253        10.64500        -0.19360
C         13.70185        12.09396         0.17098
C         14.80068         9.95723        -0.50335
C         14.80303        12.85544        -0.50707
C         13.61544        14.95684        -0.01617
C         13.61449        16.37806         0.03672
C         14.81688        14.24464        -0.37913
C         14.83060        17.10364        -0.14314
C         13.61712        19.21737         0.21134
C         14.83847        18.53562        -0.02116
C         16.02208         2.06931        -0.65836
C         16.01722         3.51301        -0.63598
C         17.26042         1.39093        -0.76928
C         17.25752         4.22624        -0.65434
C         16.03963         6.34860        -0.49584
C         16.04188         7.78733        -0.51348
C         17.25609         5.63761        -0.55150
C         17.27457         8.48905        -0.68335
C         15.97243        10.66302        -0.84359
C         15.92505        12.12912        -1.20204
C         17.20604         9.91880        -1.04109
C         17.24122        12.85707        -1.02730
C         16.02877        14.99301        -0.61002
C         16.04374        16.40491        -0.43754
C         17.24166        14.29206        -0.88591
C         17.27363        17.12038        -0.53474
C         16.06973        19.22938        -0.13193
C         17.29000        18.54988        -0.36207
C         18.48174         2.09256        -0.84876
C         18.49951         3.51491        -0.77706
C         19.73103         1.39996        -0.97509
C         19.74630         4.22437        -0.89788
C         18.55146         6.36257        -0.30579
C         18.50833         7.82187        -0.66951
C         19.76885         5.64594        -0.83309
C         19.73332         8.50846        -0.83876
C         18.48762        10.68517        -1.15285
C         18.46228        12.16701        -1.05858
C         19.73282        10.00057        -0.63764
C         19.70081        12.83912        -1.13092
C         18.45343        15.01171        -0.98355
C         18.48681        16.41947        -0.79917
C         19.67705        14.30024        -1.48883
C         19.73345        17.12873        -0.84726
C         18.52832        19.23292        -0.42468
C         19.74963        18.54652        -0.63960
C         20.92826         2.07263        -1.07992
C         20.96450         3.50970        -1.08822
C         22.19950         1.26290        -1.13684
C         22.19414         4.22103        -1.27183
C         20.95797         6.35993        -1.06184
C         20.95391         7.81083        -1.01343
C         22.18373         5.65079        -1.30791
C         22.16805         8.52471        -1.25186
C         20.98026        10.70972        -1.08357
C         20.93836        12.12541        -1.18843
C         22.17720         9.98603        -1.25341
C         22.16505        12.85505        -1.32312
C         20.96532        15.01678        -1.21222
C         20.97007        16.41792        -1.02902
C         22.17654        14.29357        -1.28418
C         22.21598        17.12029        -1.00166
C         20.99423        19.23285        -0.63645
C         22.22033        18.55545        -0.81125
C         23.45953         2.07273        -1.33089
C         23.43482         3.50698        -1.41247
C         24.65199         1.38468        -1.38969
C         24.65706         4.21198        -1.60457
C         23.38488         6.38319        -1.55460
C         23.34368         7.80663        -1.57795
C         24.64154         5.66677        -1.70873
C         24.54271         8.57281        -1.95724
C         23.39060        10.71068        -1.40593
C         23.38826        12.14428        -1.36198
C         24.62144        10.00726        -1.63516
C         24.61824        12.86611        -1.38657
C         23.41871        14.99599        -1.28511
C         23.43467        16.41955        -1.17469
C         24.64294        14.26114        -1.36365
C         24.69016        17.12791        -1.22543
C         23.45328        19.24135        -0.80287
C         24.69058        18.57765        -1.05109
C         25.90330         2.06596        -1.51423
C         25.88903         3.49736        -1.65293
C         27.11839         1.37538        -1.47944
C         27.14318         4.17063        -1.79928
C         25.83827         6.34846        -1.89528
C         25.87066         7.81237        -2.08997
C         27.10947         5.61901        -2.03521
C         27.08724         8.56645        -1.76505
C         25.84297        10.66698        -1.61145
C         25.90935        12.11741        -1.20472
C         27.08931         9.95268        -1.63894
C         27.09257        12.81613        -1.86551
C         25.91771        14.97875        -1.41284
C         25.90072        16.43501        -1.37524
C         27.09942        14.29465        -1.56287
C         27.15180        17.14073        -1.42212
C         25.88037        19.28846        -1.13157
C         27.13862        18.63826        -1.61426
C         28.37429         2.05644        -1.53315
C         28.36859         3.50232        -1.68101
C         29.57231         1.36134        -1.44634
C         29.62954         4.22092        -1.56761
C         28.41031         6.37856        -1.88654
C         28.29436         7.79690        -1.43590
C         29.64624         5.63860        -1.54944
C         29.54904         8.52794        -1.11605
C         28.33238        10.70194        -1.39207
C         28.36259        12.10478        -1.45977
C         29.54201        10.00583        -1.14386
C         29.56099        12.82947        -1.19160
C         28.40508        15.00319        -1.79399
C         28.36477        16.45918        -1.41142
C         29.60025        14.25506        -1.25358
C         29.60288        17.13813        -1.15671
C         28.39598        19.29796        -1.14097
C         29.58401        18.59328        -1.01412
C         30.90956         2.02657        -1.56786
C         30.85388         3.52693        -1.36857
C         31.94810         1.39246        -0.68424
C         32.04332         4.22211        -1.09149
C         30.84173         6.34408        -1.29672
C         30.84166         7.84841        -1.50192
C         32.04114         5.63795        -1.07342
C         31.99588         8.57812        -0.87580
C         30.73650        10.69047        -0.87001
C         30.74687        12.11756        -0.82084
C         31.94733         9.93786        -0.63659
C         31.91486        12.83227        -0.42151
C         30.76684        14.95036        -0.90893
C         30.78320        16.41355        -0.91841
C         31.92240        14.22473        -0.46870
C         32.01088        17.10983        -0.63383
C         30.81506        19.26866        -0.77422
C         32.02485        18.56778        -0.63410
C         33.10337         2.05142        -0.37648
C         33.34771         3.42306        -0.98551
C         34.12863         1.42934         0.41389
C         34.48914         4.15889        -0.31599
C         33.28158         6.39652        -0.72676
C         33.24461         7.87645        -0.90336
C         34.53924         5.63914        -0.38699
C         34.36896         8.66798        -1.00729
C         33.14739        10.57148         0.02760
C         33.11330        12.12268         0.19394
C         34.45963        10.02105        -0.56669
C         34.41465        12.83210        -0.12635
C         33.10893        14.96750         0.10435
C         33.18134        16.41326        -0.31921
C         34.42521        14.22318        -0.07489
C         34.41210        17.09820        -0.09559
C         33.23692        19.25394        -0.42343
C         34.45907        18.56107        -0.19717
C         35.28850         2.09740         0.78341
C         35.44299         3.51185         0.44587
C         36.28810         1.46279         1.58634
C         36.58842         4.22425         0.99984
C         35.88686         6.25406        -0.19074
C         36.19895         7.56638        -0.57446
C         36.79291         5.60612         0.67503
C         37.09825         8.38923         0.10919
C         35.67455        10.60221        -0.24547
C         35.68715        12.08770        -0.18345
C         36.90413         9.87124         0.20787
C         36.96943        12.84767         0.16369
C         35.63243        14.95877         0.16870
C         35.57304        16.38573         0.23521
C         36.86270        14.28684         0.43738
C         36.73123        17.17264         0.78641
C         35.66769        19.23502        -0.09824
C         36.96025        18.47292         0.01946
C         37.38896         2.15521         2.07716
C         37.54684         3.56398         1.78261
C         38.38680         1.50907         2.89200
C         38.69032         4.27567         2.28874
C         37.92405         6.32896         1.17038
C         38.04933         7.73465         0.93899
C         38.87556         5.66284         1.99653
C         39.16815         8.45475         1.46199
C         38.07540        10.63499         0.76551
C         38.14609        12.11858         0.66294
C         39.38306         9.87817         0.97106
C         39.22684        12.80117         1.19628
C         38.02214        14.97400         0.88243
C         38.01434        16.39667         0.95553
C         39.21745        14.25679         1.24124
C         39.16195        17.11086         1.29155
C         38.08942        19.24347         0.65625
C         39.15010        18.57258         1.23135
C         39.45885         2.19939         3.38111
C         39.64207         3.59957         3.09511
C         40.74876         4.32048         3.60170
C         39.99252         6.38095         2.52478
C         40.14370         7.79282         2.21377
C         40.91623         5.67088         3.33010
C         41.27747         8.55639         2.68197
C         40.37608        10.66657         1.79914
C         40.36249        12.07060         1.75864
C         41.36909         9.91482         2.50200
C         41.45040        12.84974         2.27530
C         40.34229        14.96401         1.71303
C         40.35219        16.41507         1.70894
C         41.45912        14.21747         2.21705
C         41.45603        17.16961         2.12286
C         40.31112        19.27640         1.70370
C         41.42143        18.58443         2.12993
O          3.28080        16.95884        -0.52772
O         33.20113        12.42402         1.59288
O         25.11434         8.24945        -3.26457
O         36.59681        12.56645        -1.24763
O         37.02480        10.22291         1.68348
O         27.89400         6.09537        -3.21475
O         28.76963         7.93115        -0.03463
O         17.89940        10.19283        -2.38270
O         35.49074         8.12166        -1.63867
O         33.61817         6.13761         0.70752
O          3.76976        12.02985        -1.16401
H          2.91987        11.62875        -1.44716
O          5.05068         5.67149         3.06886
H          4.31328         5.06147         3.33827
O         36.32383        17.57483         2.13271
H         35.94660        16.79051         2.58425
O          8.44717        11.04023        -1.26618
H          8.54213        10.22064        -1.79421
O          3.45336         3.51851         2.84457
H          3.93917         2.80142         3.30452
O          6.47847         8.01385         2.85607
H          5.88617         7.34591         3.28038
O         19.53919        14.33401        -2.97231
H         18.70477        13.86541        -3.19260
O          8.89432        11.69039         2.30256
H          8.93086        12.52517         2.81412
O         26.18624        12.14308         0.23105
H         25.44903        11.69130         0.69218
O         26.95127        12.69788        -3.30634
H         27.66464        13.25266        -3.70253
O          7.83686         4.13764         2.67183
H          7.13555         4.67523         3.10614
O         12.03000         5.75207        -2.15090
H         12.70450         5.18690        -2.58588
O          2.92221         3.95821        -0.75544
H          2.17674         4.34931        -1.25655
O         32.89286        15.04281         1.55066
H         32.90926        14.08493         1.85663
O         33.19539         9.98608         1.34992
H         33.29268        10.76578         1.96809
O         14.06723        12.06511         1.63324
H         14.14336        13.00121         1.92259
O          4.80862        16.84344         2.78148
H          5.57785        17.23956         3.24273
O         18.72320         6.35151         1.17154
H         18.68348         5.41367         1.45805
O         30.98830         8.04915        -2.94690
H         30.30366         7.51418        -3.40356
O         27.13763        18.81785        -3.10402
H         28.01647        18.51820        -3.42336
O         22.10292         0.25328        -2.15796
H         22.03105         0.70378        -3.02430
O         39.97857         9.76467        -0.36503
H         40.84465         9.31546        -0.26803
O         33.77396         3.20110        -2.36692
H         33.07579         2.63852        -2.79076
O         37.38604        18.12558        -1.33683
H         37.51365        18.95777        -1.83789
O         28.58343        15.00095        -3.27675
H         27.89084        15.59228        -3.64518
O         12.71392         9.51131         1.66221
H         13.07665        10.31906         2.09546
O         31.37356         1.82272        -2.97040
H         30.69018         2.21011        -3.55910
O         12.08751         8.88643        -1.90662
H         12.00007         8.03362        -2.38991
O         15.63901        12.14303        -2.65889
H         16.30475        11.54522        -3.07217
O         19.66407        10.20467         0.82096
H         20.33832         9.62701         1.23735
H          0.43479         1.46140         1.19078
H          0.38553         3.90018         0.94461
H          2.57870         0.19210         0.90633
H          0.48812         5.77818         0.45990
H          0.40890         8.21220         0.52929
H          0.35223        10.13113         0.80598
H          0.32475        12.55162         0.83774
H          0.32477        14.49406         0.86411
H          0.31570        16.91988         0.98748
H          1.62144        19.13197         1.29797
H          5.08074         0.22056         0.73439
H          3.76831        20.32098         1.46391
H          7.50170         0.27066         0.57653
H          6.23563        20.30768         0.95534
H          9.90625         0.27239         0.17489
H          8.68979        20.29115         0.82845
H         12.34649         0.26820        -0.21497
H         11.15602        20.30089         0.57251
H         14.80482         0.27467        -0.52447
H         13.62232        20.31492         0.28667
H         17.26999         0.29126        -0.79894
H         16.07879        20.32422        -0.02317
H         19.72960         0.30010        -0.99042
H         18.54665        20.32344        -0.28057
H         22.29454         0.70296        -0.16501
H         21.00125        20.32221        -0.48227
H         24.64680         0.28749        -1.31351
H         23.45817        20.33252        -0.65924
H         27.11364         0.28000        -1.37655
H         25.87729        20.37796        -0.97533
H         29.55114         0.26405        -1.36152
H         28.40783        20.39522        -1.05178
H         31.78073         0.36579        -0.32361
H         30.81652        20.36702        -0.70855
H         33.96652         0.39538         0.75565
H         33.24030        20.35430        -0.43524
H         36.16536         0.39709         1.83293
H         35.69683        20.32624        -0.24902
H         38.26638         0.43915         3.11772
H         38.13622        20.33751         0.53295
H         40.20813         1.68981         4.00498
H         41.48441         3.79756         4.23031
H         41.78517         6.18854         3.75883
H         42.06616         8.05163         3.25586
H         42.20818        10.44208         2.97788
H         42.32836        12.33918         2.69335
H         42.33898        14.75267         2.59852
H         42.37703        16.67466         2.45881
H         40.30813        20.37590         1.69363
H         42.30933        19.13328         2.47453
