         316
 CSIRO Nanostructure Databank - Neutral Graphene Oxide Data Set
C         30.26093        31.50688         0.36915
C         30.33793        32.66592        -0.06003
C         30.17729        35.98237        -0.41822
C         30.22724        37.21169        -0.52164
C         30.30225        40.57043        -0.94964
C         30.24517        41.81290        -0.88340
C         32.71617        29.03987         1.68351
C         31.55980        29.51848         1.40404
C         32.83955        32.14720         1.30420
C         31.00775        30.76386         1.32909
C         32.71416        33.10326         0.27684
C         31.41399        33.63442        -0.42422
C         32.57745        35.89499        -0.39698
C         31.26323        35.07700         0.06466
C         32.63364        37.38176        -0.66460
C         31.26559        38.12156        -1.09565
C         32.74398        40.34788        -1.23520
C         31.26370        39.54925        -0.52495
C         32.75021        41.88833        -1.19513
C         31.38489        42.68755        -1.15842
C         32.74983        44.63607        -0.67735
C         31.65607        44.06734        -0.74787
C         35.39823        27.32298         1.05739
C         35.24487        28.75893         1.26151
C         34.04229        29.32990         1.81001
C         35.25398        31.91750         0.78328
C         34.11315        31.57830         1.53117
C         35.18767        33.11820         0.03283
C         33.90767        33.67319        -0.23009
C         35.42019        36.14983         0.05001
C         33.66209        34.95698        -0.99005
C         35.26886        37.45228        -0.42215
C         33.98461        38.09664        -1.02774
C         35.26901        40.36445        -0.92949
C         33.93751        39.60342        -0.56457
C         35.22962        41.83941        -0.38655
C         34.07946        42.61605        -1.03307
C         35.37665        44.82492        -0.43775
C         34.11210        44.14046        -0.86700
C         35.47790        46.09884         0.28267
C         37.78458        27.29399         0.50670
C         36.52629        26.79431         0.88907
C         37.57351        28.81249         0.29334
C         36.33969        29.51921         0.85758
C         37.63054        31.53911        -0.14968
C         36.53342        31.07573         0.92599
C         37.75080        33.05199        -0.15197
C         36.44584        33.74533        -0.57549
C         37.84416        35.97538        -0.39405
C         36.53204        35.28267        -0.43458
C         37.76435        37.44529        -0.02213
C         36.59132        38.15267        -0.78978
C         37.83233        40.41825        -0.74427
C         36.52865        39.64332        -0.34801
C         37.74833        41.79765        -0.06369
C         36.61291        42.52822        -0.28137
C         37.87959        44.71155         0.47665
C         36.64312        44.01512        -0.14266
C         37.59910        45.88820         1.51384
C         36.45499        46.60791         0.84557
C         40.08645        24.41010         0.10883
C         39.14737        25.21224         0.20294
C         40.25026        27.21403        -0.21762
C         38.96399        26.64870         0.13928
C         40.54413        28.54869        -0.71450
C         38.77445        29.59241         0.75502
C         40.26316        31.53469         0.32404
C         38.94268        30.84714         0.24324
C         40.25177        33.02196         0.28677
C         38.93871        33.70203         0.02056
C         40.28373        35.95804         0.24650
C         39.01501        35.18952         0.06371
C         40.26603        37.43114         0.00696
C         39.09978        38.11628        -0.22177
C         40.19962        40.18388         0.41722
C         39.19856        39.59796        -0.58345
C         40.18399        41.69990         0.44778
C         38.84363        42.27405         0.89565
C         40.19360        44.49072         1.46500
C         38.91173        43.78645         1.11709
C         40.18105        45.99411         1.50589
C         38.90393        46.63532         1.64853
C         40.11785        48.69766         1.87368
C         39.05508        48.00672         1.83732
C         42.73693        24.36663         0.11799
C         41.43196        24.91273        -0.36805
C         42.74274        27.19140         0.02425
C         41.46215        26.42690         0.23710
C         42.71268        28.61075         0.57524
C         41.55691        29.31932        -0.10908
C         42.76417        31.60221         0.28758
C         41.54709        30.84630        -0.26924
C         42.76526        32.96000         0.31784
C         41.53983        33.74904        -0.13959
C         42.73953        35.93349         0.33288
C         41.57192        35.22972         0.23962
C         42.76283        37.40760         0.25798
C         41.55168        38.12720         0.12119
C         42.75594        40.26052         0.23276
C         41.55615        39.54227         0.19098
C         42.79259        41.78297         0.14224
C         41.45974        42.47208         0.51428
C         42.74909        44.52496         1.16809
C         41.51052        43.69993         1.45278
C         42.74945        46.00636         1.53324
C         41.39002        46.71683         1.55412
C         42.70293        48.72122         1.54696
C         41.39668        48.15193         1.72657
C         43.76964        25.04534         0.18549
C         45.23322        27.13522         0.34838
C         44.04523        26.45363        -0.26644
C         45.25922        28.63138         0.52620
C         43.99585        29.42064         0.20758
C         45.26425        31.60623         0.64941
C         43.95821        30.83453         0.86056
C         45.26988        32.96349         0.73001
C         43.93790        33.68480         0.98742
C         45.26868        35.97731         0.63164
C         43.98485        35.21056         0.72103
C         45.26474        37.39616         0.13510
C         43.97885        38.14409         0.21819
C         45.24275        40.33653        -0.19785
C         43.97995        39.55527         0.15100
C         45.26448        41.78809         0.28420
C         44.00713        42.36110         0.91618
C         45.17679        44.65220         0.73832
C         43.94403        43.88899         0.92727
C         45.11406        46.03319         0.68642
C         43.80220        46.75282         0.66286
C         43.75992        48.16155         1.22557
C         47.69406        27.21911         0.29107
C         46.61069        26.65505         0.14593
C         47.89343        28.61562         0.84395
C         46.58751        29.35912         0.23900
C         47.86042        31.55355         0.58908
C         46.55084        30.82572         0.65016
C         47.88668        33.08663         0.63189
C         46.50157        33.74787         0.25688
C         47.87573        35.99075         0.56926
C         46.57558        35.23118         0.66684
C         47.88546        37.53374         0.54821
C         46.55155        38.15574         0.12795
C         47.80509        40.36521        -0.06378
C         46.51183        39.66385         0.35168
C         47.66515        41.83323        -0.42357
C         46.41600        42.48740         0.17513
C         47.49870        44.66355        -0.49956
C         46.52382        43.94601         0.57223
C         47.40645        46.10359        -0.09455
C         46.33738        46.63798         0.23494
C         50.24632        28.68164        -0.39112
C         49.16880        29.32254         0.41426
C         50.15937        31.54536        -0.66116
C         49.15618        30.82555         0.26838
C         50.38029        32.99804        -0.12845
C         49.01828        33.77428        -0.21562
C         50.24202        35.99413        -0.57408
C         49.22917        35.25018         0.34025
C         50.32499        37.49544        -0.17494
C         48.95722        38.19185        -0.37858
C         50.30517        40.43014        -0.18001
C         48.99383        39.70208        -0.12261
C         50.24953        41.94333        -0.26994
C         48.93526        42.64272        -0.25498
C         50.12620        44.64994        -0.47223
C         48.84568        44.01412        -0.39910
C         51.28172        29.39127        -0.63322
C         52.60588        31.64446        -0.78232
C         51.55001        30.74442        -0.71652
C         52.76790        32.89899        -0.66378
C         51.48900        33.76940        -0.94254
C         52.53042        36.05217        -1.53124
C         51.64525        35.23468        -0.49816
C         52.30115        37.30789        -1.46954
C         51.43097        38.24110        -0.96030
C         52.35249        40.58118        -1.54834
C         51.66418        39.65459        -0.54322
C         52.42344        41.82086        -1.30751
C         51.45431        42.70912        -0.81908
C         51.22097        44.08115        -0.77430
O         37.22301        35.72714        -1.66836
O         32.04048        42.40654        -2.39029
O         34.12772        35.16906        -2.09986
O         39.26313        44.02836         2.51421
O         32.72798        36.89666         0.70372
O         45.12111        27.73656         1.66689
O         34.25196        30.56225         2.51341
O         46.20439        33.76014        -1.15355
O         46.00850        37.63142        -1.10925
O         40.43749        32.31049         1.55578
O         49.72182        30.18882         1.45308
O         47.31401        35.57554         1.86994
O         44.56303        35.88846         1.91003
O         34.32481        43.49815        -2.14909
O         40.62566        42.50436        -0.69367
O         47.31614        31.05788         1.86775
O         31.76097        31.71821         2.12150
O         39.43048        35.61359         1.42640
O         50.53593        41.23934         1.01628
O         36.38337        44.66188        -1.45426
O         32.71643        40.01742        -2.60615
H         32.31057        40.77944        -3.08803
O         36.40685        39.77760         1.07622
H         36.92765        39.06504         1.52965
O         47.80453        28.55918         2.23495
H         48.57260        29.03212         2.62498
O         48.19447        37.96314         1.88862
H         47.91428        37.24454         2.50187
O         38.60519        45.32130        -0.60382
H         37.95017        45.56454        -1.30326
O         34.80477        35.61092         1.13513
H         34.14411        36.25757         1.48773
O         37.78276        40.75533        -2.15031
H         38.55094        41.33409        -2.34738
O         35.25648        40.41636        -2.35359
H         36.15062        40.68416        -2.67763
O         36.90652        38.21230        -2.19090
H         36.81784        37.29740        -2.55110
O         43.35331        46.78691        -0.68151
H         44.09013        47.08218        -1.25687
O         50.69489        37.66057         1.18365
H         51.39619        37.00375         1.40306
O         44.28973        26.40676        -1.68043
H         43.54237        25.92111        -2.09568
O         37.08518        31.35436         2.22377
H         36.40177        31.13657         2.89518
O         39.79394        39.71885         1.72510
H         40.40065        40.08769         2.39969
O         39.55924        29.02025         1.69842
H         40.23677        29.65649         2.01377
O         52.47036        39.62416         0.61608
H         52.24648        40.42680         1.14823
O         34.85986        41.85684         1.02624
H         35.49473        41.23465         1.47634
O         43.25609        46.05586         2.88953
H         42.70640        45.46588         3.44689
O         39.87072        39.64100        -1.85918
H         39.28089        39.20664        -2.51450
O         43.68808        33.52811         2.41448
H         44.11461        34.29554         2.86606
O         34.12780        37.97400        -2.43503
H         34.76561        38.67011        -2.73842
O         37.45934        28.82506        -1.14568
H         36.52331        28.66033        -1.38134
O         33.76657        39.51783         0.84617
H         33.74425        40.43027         1.22063
O         37.48710        37.46025         1.40835
H         38.22786        36.96107         1.84255
O         37.13985        45.35881         2.74276
H         37.23658        46.03771         3.44146
O         39.81091        29.04001        -1.72047
H         40.13637        29.94841        -1.95184
O         31.28382        39.51274         0.86986
H         31.73712        38.69800         1.17837
O         47.23836        44.02199         1.82154
H         46.71571        43.55304         2.50536
O         31.12663        38.04343        -2.49317
H         31.90849        38.47679        -2.91734
O         43.95397        29.62316        -1.22810
H         44.88569        29.69988        -1.55578
O         37.15515        31.14398        -1.44098
H         37.03123        31.93758        -2.01388
O         42.51640        28.57484         2.01495
H         43.39314        28.38157         2.42697
O         41.45997        24.95906        -1.76800
H         41.29801        24.06265        -2.12797
O         46.71423        29.37068        -1.20195
H         46.91153        28.45458        -1.50468
O         47.47786        41.84020        -1.88671
H         46.72577        41.21002        -2.08025
O         49.88303        35.97176        -1.95488
H         49.41507        35.08532        -2.13090
O         43.99598        41.88552         2.27393
H         43.24517        42.31226         2.75342
O         52.25523        35.33671         0.74473
H         52.74748        34.50443         0.93047
O         43.78886        30.71078         2.28248
H         43.68865        31.62766         2.64180
O         46.40852        39.87560         1.78057
H         47.17646        39.40956         2.19915
O         31.25096        35.00830         1.47073
H         31.19007        35.91869         1.83024
O         49.65492        31.49547        -1.96957
H         49.28632        32.41034        -2.18909
O         48.53620        38.13822        -1.73942
H         48.83915        37.28691        -2.15090
O         48.66505        33.80904        -1.57554
H         47.08612        33.82582        -1.64639
O         41.48315        31.10918        -1.70196
H         42.31319        30.73606        -2.08127
O         38.46745        41.70477         2.16893
H         37.76570        42.26540         2.56199
O         45.27345        40.36121        -1.64962
H         44.47913        40.88137        -1.92838
O         50.84908        32.89413         1.21422
H         50.07759        32.92428         1.82918
O         43.06732        42.08946        -1.25116
H         42.19282        42.13914        -1.70723
O         51.24202        33.70614        -2.30981
H         51.73918        34.43285        -2.75083
O         48.19073        33.35059         2.01873
H         47.67932        32.69655         2.55540
O         46.98535        44.52228        -1.80932
H         47.22068        43.61779        -2.14656
O         41.33844        26.20176         1.66248
H         41.60666        27.04312         2.11698
O         49.87093        35.23839         1.61830
H         49.19120        34.99021         2.28759
O         41.50536        33.78912        -1.59317
H         42.39827        34.01530        -1.92756
O         36.31739        33.52031        -2.01003
H         35.58323        34.10253        -2.34318
O         41.65137        43.14974         2.79918
H         40.74034        43.12337         3.18916
O         31.63673        33.67464        -1.82202
H         31.62211        32.76762        -2.18960
