         344
 CSIRO Nanostructure Databank - Neutral Graphene Oxide Data Set
C          1.09881         3.73144        -0.56143
C         -0.10399         4.33438        -0.13648
C          1.14422         6.18310         1.00951
C         -0.12224         5.50646         0.57791
C          1.16915         7.69926         0.82380
C         -0.02450         8.41598         0.59587
C          1.18119        10.53669         0.64465
C         -0.01663         9.79379         0.48874
C          1.19016        11.97445         0.56783
C         -0.00645        12.70263         0.32903
C          1.19074        14.81854         0.44368
C         -0.00729        14.07693         0.27730
C          1.18434        16.25966         0.41300
C         -0.02220        16.98962         0.29039
C          1.17379        19.11268         0.36737
C         -0.02580        18.37085         0.27309
C          1.16058        20.56532         0.30267
C         -0.04434        21.28761         0.14846
C          1.15798        23.39118        -0.03523
C         -0.05044        22.66535        -0.00732
C          1.17976        24.84658        -0.27342
C          0.02883        25.65057        -0.09976
C          1.27321        27.63243        -0.77734
C          0.07268        27.01036        -0.36304
C          1.32578        29.04777        -1.02320
C          3.56996         3.78592        -0.81700
C          2.35670         4.34431        -0.29150
C          3.63397         6.23744         0.71131
C          2.37149         5.57357         0.39493
C          3.64976         7.69118         0.97505
C          2.38265         8.40245         0.95130
C          3.61337        10.56495         1.10509
C          2.39786         9.84153         0.90299
C          3.63087        11.97499         1.01507
C          2.40865        12.68614         0.73209
C          3.63935        14.84062         0.76821
C          2.41098        14.11373         0.65033
C          3.63987        16.25823         0.68330
C          2.41045        16.97793         0.52604
C          3.64613        19.12447         0.60865
C          2.40307        18.40811         0.49302
C          3.64562        20.57762         0.52801
C          2.38570        21.28796         0.34469
C          3.64072        23.49970         0.12966
C          2.36648        22.68951         0.15268
C          3.53733        24.54158        -1.00280
C          2.37433        25.45523        -0.69900
C          3.70710        27.49101        -1.26336
C          2.44702        26.84365        -0.94065
C          3.73112        28.91621        -1.42443
C          2.50209        29.66138        -1.34307
C          5.96768         3.98716        -1.34808
C          4.81263         4.40496        -0.65329
C          6.12825         6.42719         0.15806
C          4.92566         5.58000         0.23888
C          6.11080         7.75438         0.76695
C          4.84973         8.37610         1.07368
C          6.13252        10.53808         1.58374
C          4.80022         9.77718         1.64518
C          6.12061        12.04467         1.43952
C          4.84677        12.73365         1.16133
C          6.11740        14.86186         1.03616
C          4.86708        14.12765         0.98266
C          6.10430        16.27359         0.99915
C          4.86816        16.98281         0.82490
C          6.08514        19.15762         1.17510
C          4.84220        18.40002         0.77068
C          6.15398        20.52251         0.46339
C          4.85028        21.28758         0.51044
C          6.10376        23.27017        -0.21074
C          4.89917        22.66142         0.09450
C          6.14711        24.56270        -0.94101
C          4.86607        25.27529        -1.25530
C          6.16321        27.44281        -1.40531
C          4.90979        26.76105        -1.33611
C          6.17020        28.86639        -1.56875
C          4.95136        29.57202        -1.62681
C          8.34373         4.24159        -1.91904
C          7.18480         4.71219        -1.27455
C          8.45014         6.83440        -0.61260
C          7.22258         5.95873        -0.53532
C          8.57327         7.65580         0.69090
C          7.31527         8.46552         0.87413
C          8.59436        10.56591         1.08242
C          7.38065         9.84720         1.19702
C          8.60614        12.00798         1.11199
C          7.38822        12.74027         1.14347
C          8.61205        14.87917         1.07899
C          7.36716        14.15233         1.05847
C          8.60269        16.27619         1.11733
C          7.36473        17.00367         1.04668
C          8.64107        19.09289         0.52713
C          7.37455        18.39385         0.97248
C          8.65535        20.59284         0.68292
C          7.36021        21.33147         0.96270
C          8.64747        23.43884         0.21542
C          7.34936        22.74722         0.39661
C          8.72561        24.67940        -0.60638
C          7.44504        25.31165        -1.06849
C          8.63618        27.48884        -1.18844
C          7.42304        26.77290        -1.25021
C          8.61652        28.90878        -1.40282
C          7.41747        29.55790        -1.61155
C         10.75526         4.28699        -2.32330
C          9.62030         4.88093        -1.80743
C         10.92372         6.62822        -0.67521
C          9.71342         6.09808        -0.98625
C         11.07893         7.60063         0.48717
C          9.84799         8.46182         0.68917
C         11.08281        10.60694         0.83458
C          9.85335         9.84117         0.86660
C         11.09228        12.01299         0.88054
C          9.84566        12.73569         1.02123
C         11.10965        14.86689         1.07935
C          9.85977        14.14488         1.08166
C         11.13213        16.26986         1.16900
C          9.86322        17.01840         1.49118
C         11.09603        19.13936         1.01183
C          9.90857        18.44834         1.02145
C         11.12170        20.57494         0.75528
C          9.86352        21.27295         0.60838
C         11.10914        23.39467         0.35763
C          9.91512        22.70901         0.44148
C         11.14987        24.90183         0.20773
C          9.89945        25.52998        -0.37954
C         11.15823        27.64734        -0.61454
C          9.88072        26.83745        -0.78390
C         11.14361        28.92556        -1.41560
C          9.87845        29.74154        -1.31577
C         13.26070         3.98815        -1.87872
C         12.11273         4.94123        -2.32057
C         13.44568         6.77460        -1.09158
C         12.12066         6.20573        -1.44448
C         13.59198         7.82945        -0.06069
C         12.37787         8.38193         0.52704
C         13.62077        10.59265         0.54915
C         12.37413         9.89022         0.80913
C         13.60197        12.08300         0.35248
C         12.32109        12.75299         0.79216
C         13.61113        14.87415         0.92198
C         12.34768        14.14336         0.93381
C         13.60224        16.30246         1.02587
C         12.35759        16.99381         1.12709
C         13.57312        19.13297         1.20701
C         12.36328        18.42834         1.16629
C         13.54838        20.61146         1.24306
C         12.31088        21.29839         0.81848
C         13.59851        23.39957         0.41322
C         12.35787        22.70745         0.55483
C         13.63146        24.69878        -0.19858
C         12.33068        25.29814        -0.67798
C         13.52463        27.31675        -1.39656
C         12.39145        26.79515        -0.89005
C         13.55594        28.67254        -2.05750
C         12.24360        29.40338        -2.01597
C         15.79618         3.98702        -2.15181
C         14.62424         4.66377        -1.96100
C         15.98791         6.70273        -1.25693
C         14.67083         6.10061        -1.61822
C         16.07385         7.74990        -0.17092
C         14.79375         8.50026         0.08504
C         16.08086        10.64412         0.32415
C         14.81640         9.89705         0.43208
C         16.08312        11.99857         0.50334
C         14.83664        12.69461         1.00149
C         16.07631        14.89982         0.83645
C         14.84055        14.19596         0.84410
C         16.07099        16.32513         0.99143
C         14.83153        17.02873         1.07630
C         16.06903        19.17773         1.25569
C         14.82768        18.45542         1.19981
C         16.11657        20.61791         1.23671
C         14.84175        21.37406         1.22444
C         16.05681        23.42153         0.50753
C         14.85181        22.76183         0.70512
C         16.07772        24.73136        -0.10437
C         14.82516        25.30554        -0.53871
C         16.01278        27.41354        -1.18937
C         14.81872        26.52928        -1.44114
C         15.94380        28.83466        -1.32692
C         14.70693        29.48396        -1.56106
C         18.31857         3.89137        -2.20091
C         17.10708         4.59774        -1.95742
C         18.44963         6.52335        -1.17070
C         17.20419         5.89501        -1.42655
C         18.50540         7.89748        -0.71418
C         17.31272         8.58151        -0.35155
C         18.56907        10.61873         0.05302
C         17.32740         9.93822        -0.00853
C         18.56644        12.02449         0.61579
C         17.32338        12.78675         0.16535
C         18.53899        14.89846         0.75873
C         17.31570        14.21432         0.67271
C         18.54057        16.31767         0.99697
C         17.30086        17.02862         1.06749
C         18.52388        19.14930         1.39570
C         17.29346        18.45440         1.20429
C         18.51156        20.56504         1.59040
C         17.31402        21.32451         1.31253
C         18.43388        23.74885         1.19335
C         17.40011        22.73181         0.70264
C         18.45759        25.01091         0.50778
C         17.28762        25.43994        -0.23266
C         18.38200        27.69554        -0.54420
C         17.33984        26.70821        -1.07494
C         18.46865        28.97635        -1.41174
C         17.12506        29.62348        -1.39747
C         19.54510         4.49141        -1.97959
C         20.89039         6.50923        -1.34496
C         19.64185         5.82393        -1.48675
C         20.93990         7.82918        -0.96319
C         19.75547         8.57124        -0.64756
C         21.00197        10.70950        -0.15911
C         19.77793         9.95400        -0.23669
C         21.01794        12.06440         0.10376
C         19.83526        12.80213         0.37329
C         21.00349        14.96968         0.64248
C         19.80383        14.20078         0.57747
C         20.98800        16.31077         0.94819
C         19.76702        17.01563         1.14323
C         20.91725        19.08393         1.91716
C         19.75522        18.42334         1.47008
C         20.84470        20.40030         2.36468
C         19.66030        21.12565         2.19611
C         20.50088        24.41933         2.34546
C         19.47612        23.49359         2.09451
C         20.58355        25.57304         1.57758
C         19.58443        25.87851         0.64922
C         20.67009        28.15001         0.27077
C         19.75963        27.07539        -0.28180
C         20.40292        29.49586         0.09201
C         19.37609        29.95637        -0.74022
O          5.57418        24.55397        -2.32026
O         12.63149         7.36434        -2.20893
O         14.09808        21.20297         2.48919
O         19.57805        22.33987         2.86813
O          4.46471         5.40401         1.61166
O          7.85710        23.70929         1.44527
O          8.33191        24.57897        -2.00420
O          6.24766        11.38730         2.77479
O         15.37335         7.01858        -2.53814
O         12.55414         8.88853         1.88805
O          3.17578        23.83675        -2.21010
H          4.00588        23.72925        -2.73493
O         12.39576         5.30912        -3.68810
H         12.67186         6.25932        -3.67536
O          8.23015         7.78813        -1.69589
H          8.22546         7.28839        -2.53940
O         11.20013         6.69598         1.64948
H         11.56579         7.24794         2.38086
O         13.73466        12.34049        -1.08226
H         12.96199        11.94490        -1.53756
O         17.85057        22.39502        -0.66270
H         17.88685        23.23143        -1.17621
O         17.84620        28.08234         0.74475
H         18.43889        28.76018         1.13403
O         14.97840        25.99982        -2.82305
H         14.68016        26.74387        -3.41157
O          9.84955        30.79293        -2.28466
H          9.75528        30.38891        -3.17136
O         20.35309        26.57072        -1.50340
H         19.63150        26.19868        -2.05970
O         18.90856        28.70100        -2.76852
H         18.50162        27.84570        -3.04421
O          1.25737         5.94715         2.46093
H          2.18264         6.14278         2.72596
O         11.23098        28.06663         0.77904
H         11.35815        27.24546         1.31968
O         16.29730         6.95928         1.04927
H         16.34381         7.58331         1.80443
O          8.67686        18.85036        -0.93955
H          7.91289        19.35804        -1.31587
O         18.44573        11.88985         2.07216
H         19.25076        11.43194         2.39408
O          7.28256        21.46074         2.40721
H          7.66944        22.34689         2.62241
O         12.06138        24.71861        -1.98406
H         12.81894        24.94240        -2.56877
O         17.37724        12.87909        -1.28690
H         16.49318        13.15935        -1.60576
O         13.01254         3.63499        -0.51154
H         13.72962         3.04404        -0.20355
O         11.39237        25.44701         1.53803
H         10.70163        25.09912         2.14091
O          9.81451        17.09548         2.97098
H         10.66581        17.48074         3.27109
O          3.73334        24.25496         1.37356
H          3.75066        23.61572         2.11651
O         14.75046        12.43363         2.42998
H         15.61214        12.67013         2.83342
O         17.70906        26.25986        -2.43385
H         16.85885        25.94543        -2.84611
O         13.84682        28.38471        -3.49662
H         14.11726        29.23116        -3.91333
O          8.57382         6.72403         1.80036
H          9.50244         6.39880         1.92286
O          5.90085        19.30406         2.60974
H          6.58649        19.92749         2.94924
O          4.49111         9.57391         3.05762
H          4.88671        10.33895         3.53973
O          6.39878        20.28445        -0.95810
H          5.57257        19.93198        -1.35244
H          1.06940         2.78534        -1.11936
H         -1.05524         3.83888        -0.38121
H         -1.07888         5.89441         0.95458
H         -0.97571         7.87796         0.48880
H         -0.96802        10.30699         0.29997
H         -0.95768        12.17373         0.19027
H         -0.95863        14.59321         0.09692
H         -0.98360        16.46596         0.21587
H         -0.99033        18.88619         0.18132
H         -1.00706        20.76057         0.13263
H         -1.00932        23.18285        -0.14828
H         -0.91154        25.19942         0.24659
H         -0.83052        27.62434        -0.23401
H          0.39903        29.63298        -0.93140
H          3.49910         2.88914        -1.44997
H          2.53758        30.74790        -1.50957
H          5.92205         3.08033        -1.96911
H          4.96644        30.66404        -1.75907
H          8.28783         3.29326        -2.47458
H          7.41623        30.64836        -1.75690
H         10.65440         3.34767        -2.88881
H          9.88840        30.23758        -0.30538
H         13.25409         3.06270        -2.51917
H         12.19307        30.37505        -2.53522
H         15.76742         2.91602        -2.41046
H         14.68784        30.57838        -1.67615
H         18.27351         2.86548        -2.59493
H         17.03285        30.69057        -1.65134
H         20.47032         3.94187        -2.20740
H         21.82146         5.97190        -1.57795
H         21.91997         8.32168        -0.89661
H         21.95572        10.21047        -0.37722
H         21.98394        12.58703         0.05257
H         21.97269        14.47759         0.48525
H         21.94338        16.84891         1.01103
H         21.86477        18.53841         2.01567
H         21.70657        20.87599         2.84987
H         21.27125        24.17718         3.08843
H         21.44638        26.23578         1.71536
H         21.59648        27.86944         0.79037
H         21.08423        30.23285         0.54599
H         19.25584        31.03268        -0.92766
