         210
 CSIRO Nanostructure Databank - Neutral Graphene Oxide Data Set
C         30.55665        31.94785        -1.29076
C         30.59413        33.11607        -0.82670
C         30.52079        36.06113         0.23313
C         30.48030        37.24825         0.63280
C         30.58990        40.35843         1.62125
C         30.53174        41.59289         1.44796
C         33.04655        29.30700        -2.04435
C         31.92056        29.85224        -1.97128
C         32.94878        31.82447        -1.04782
C         31.71465        31.16020        -1.46563
C         32.91862        33.17227        -0.53368
C         31.68779        33.89839        -0.41182
C         32.86558        35.95501         0.34850
C         31.66074        35.24553         0.04677
C         32.84221        37.33900         0.75578
C         31.59793        38.04997         0.96565
C         32.88248        39.94872         1.73056
C         31.61902        39.36862         1.49503
C         32.84656        42.09253         1.42391
C         31.53047        42.55470         1.10573
C         32.70154        44.15259        -0.15725
C         31.60722        43.69382         0.25816
C         35.81405        27.78278        -2.11220
C         35.55930        29.12311        -1.71150
C         34.31794        29.79931        -1.66667
C         35.41704        31.78118        -0.70708
C         34.21274        31.13921        -1.15096
C         35.34570        33.11429        -0.18757
C         34.13497        33.83277        -0.12118
C         35.30769        35.92804         0.58258
C         34.11594        35.23545         0.28710
C         35.32592        37.35443         0.78125
C         34.08153        38.04702         0.88508
C         35.28859        40.24229         1.07602
C         34.09771        39.43254         1.23303
C         35.27691        41.67281         0.83487
C         34.05443        42.46928         0.77590
C         35.23568        44.25294        -0.44524
C         34.02739        43.66629        -0.02029
C         35.40190        45.51607        -1.06541
C         38.11152        27.62305        -1.50839
C         36.88344        27.13902        -2.04358
C         38.01580        29.01639        -1.17244
C         36.76161        29.75280        -1.24825
C         37.88685        31.78693        -0.39980
C         36.67142        31.09197        -0.75684
C         37.86832        33.09213         0.01888
C         36.57929        33.72151         0.33388
C         37.84174        35.92117         0.80009
C         36.56110        35.18392         0.74326
C         37.79774        37.34150         1.30282
C         36.52462        38.08729         0.96899
C         37.77143        40.23825         0.90226
C         36.52274        39.51681         0.98436
C         37.76360        41.64614         0.61559
C         36.49648        42.31826         0.44722
C         37.73505        44.34103        -0.36640
C         36.49910        43.64367        -0.11528
C         37.76585        45.67775        -0.89128
C         36.46796        46.14626        -1.22991
C         40.66598        24.89520        -1.42331
C         39.61249        25.56418        -1.60752
C         40.39872        27.49706        -0.53632
C         39.30820        26.90164        -1.26970
C         40.29162        28.88736        -0.25278
C         39.18172        29.64420        -0.66293
C         40.32894        31.74234         0.18617
C         39.23100        31.15128        -0.67254
C         40.35280        33.13552         0.36302
C         39.13164        33.91853        -0.06378
C         40.28396        35.99900         0.73211
C         39.04217        35.28819         0.58232
C         40.28798        37.39142         0.91024
C         39.04900        38.11102         0.99076
C         40.27773        40.24675         0.94446
C         39.00418        39.50651         0.93279
C         40.26490        41.73975         0.70629
C         38.97469        42.37430         0.41075
C         40.22646        44.44839        -0.19253
C         38.98970        43.72107        -0.05150
C         40.23558        45.81342        -0.61757
C         38.97287        46.40547        -0.98036
C         40.17353        48.46398        -1.41805
C         39.14421        47.74909        -1.37917
C         43.04675        24.83648        -0.36532
C         41.78319        25.37048        -0.72463
C         42.58265        27.28746         0.66140
C         41.60115        26.73575        -0.17876
C         42.43311        28.67379         1.14665
C         41.29488        29.52089         0.63653
C         42.58854        31.64839         1.14838
C         41.42353        31.00009         0.63955
C         42.74984        33.07858         0.98554
C         41.56020        33.79098         0.65956
C         42.81023        35.94032         0.80875
C         41.55116        35.27001         0.33836
C         42.81971        37.42342         0.81051
C         41.52427        38.14085         0.75543
C         42.70766        40.22069         0.10809
C         41.52496        39.50418         0.69595
C         42.75161        41.70881         0.33637
C         41.52740        42.41566         0.33684
C         42.72293        44.51135        -0.07172
C         41.48999        43.79667         0.04378
C         42.71268        45.91102        -0.37544
C         41.46832        46.57023        -0.68752
C         42.74053        48.57375        -1.05193
C         41.46003        47.97261        -1.07841
C         43.99193        25.34364         0.27107
C         44.94720        27.32177         1.62737
C         43.75621        26.46841         1.26345
C         44.76486        28.64149         2.02916
C         43.60063        29.40733         1.68720
C         45.55611        31.89598         1.58939
C         43.57528        30.79707         1.76107
C         45.34669        33.14502         0.96570
C         44.05134        33.79141         0.93099
C         45.25423        35.88359         0.32499
C         44.06948        35.17530         0.63705
C         45.21093        37.33993        -0.11217
C         44.05387        38.15120         0.44620
C         45.23651        40.22063        -0.28996
C         44.02386        39.49221         0.24748
C         45.24970        41.68043         0.13063
C         43.97613        42.39207         0.24466
C         45.18847        44.54084         0.16256
C         43.95834        43.82119         0.13381
C         45.18294        45.92936        -0.09290
C         43.97396        46.60545        -0.39399
C         43.79216        47.96054        -0.74723
C         47.43631        27.54732         1.58753
C         46.33291        26.97678         1.62518
C         47.82732        28.92205         1.41102
C         46.81108        29.78325         1.84745
C         47.83408        31.69900         0.68681
C         46.73068        31.13440         1.40793
C         47.76671        33.07143         0.31582
C         46.52468        33.80026         0.45883
C         47.65377        35.90677        -0.32414
C         46.45571        35.18401         0.15949
C         47.73119        37.36943        -0.11350
C         46.52718        38.07715         0.01553
C         47.75457        40.18327        -0.07172
C         46.53475        39.48910        -0.01430
C         47.70995        41.68154        -0.31704
C         46.44524        42.33953         0.22961
C         47.77734        44.52109         0.61733
C         46.43381        43.79681         0.49934
C         47.60679        45.91075         0.17425
C         46.50806        46.46850         0.02360
C         50.15775        28.87696         0.35026
C         48.95863        29.49015         0.74666
C         50.18262        31.54221        -0.08816
C         49.00338        30.91030         0.44320
C         50.15854        32.97415        -0.29809
C         48.95762        33.69793        -0.15428
C         50.20205        35.90250        -0.45850
C         48.93623        35.13926        -0.49208
C         50.20752        37.28704        -0.28873
C         48.98301        38.04580        -0.15564
C         50.21852        40.22248        -0.35394
C         48.98607        39.48156        -0.13025
C         50.20711        41.67542        -0.35436
C         49.02506        42.36007        -0.00833
C         50.22329        44.44059        -0.14537
C         49.09464        43.77411         0.61079
C         51.21727        29.38843        -0.10577
C         52.48474        31.56193        -0.78306
C         51.38340        30.76272        -0.35550
C         52.43716        32.80733        -0.87697
C         51.36855        33.71982        -0.67285
C         52.51344        36.00325        -0.79519
C         51.40212        35.11182        -0.68001
C         52.61864        37.23761        -0.73563
C         51.52123        38.05690        -0.07725
C         52.50908        40.34406        -0.74426
C         51.43010        39.49223        -0.50286
C         52.56387        41.60992        -0.82976
C         51.45985        42.42842        -0.59977
C         51.27084        43.83105        -0.43817
O         42.82593        36.64004         2.08727
O         47.01535        44.21933         1.80773
O         32.94947        41.14920         2.46117
O         48.09554        35.47252        -1.65820
O         44.59308        31.42998         2.49009
O         39.28721        34.13859        -1.48462
O         36.47496        34.11711         1.75711
O         41.22703        28.91276         1.97731
O         45.81432        29.29693         2.71748
O         40.36100        41.18627         2.08098
O         49.51758        43.60097         1.96221
H         48.85486        44.01562         2.55764
O         47.55416        41.82626        -1.77652
H         46.78339        41.26576        -2.04450
O         37.78736        37.22971         2.77840
H         37.87325        38.13558         3.14594
O         44.92599        37.29490        -1.54744
H         45.09604        38.19866        -1.90984
O         39.59881        31.52353        -2.03511
H         39.52497        32.53251        -2.06324
O         51.75652        38.06554         1.33770
H         52.54805        38.61468         1.51931
O         41.59762        35.38509        -1.11446
H         40.76565        34.92824        -1.47184
O         45.12733        40.21328        -1.76305
H         44.18187        40.44010        -1.97026
O         43.25843        25.88695         2.46996
H         44.00663        25.48297         2.95720
O         42.44863        40.14894        -1.37062
H         42.28811        39.20544        -1.59777
