         480
 CSIRO Nanostructure Databank - Neutral Graphene Oxide Data Set
C         37.57151        50.08819         1.47057
C         36.41897        50.79612         1.82514
C         37.50366        52.86633         1.21255
C         36.38427        52.18559         1.68330
C         40.01070        48.53699         0.70618
C         39.91157        50.01523         0.44485
C         38.70482        50.75403         0.99390
C         39.88236        52.88889         0.44576
C         38.68278        52.17225         0.86461
C         39.90777        54.24974         0.14860
C         42.47871        48.62308         0.50527
C         41.20112        47.91161         0.61536
C         42.48482        50.00793         0.64403
C         41.21089        50.71864         0.80187
C         42.41062        52.84290        -0.01393
C         41.18108        52.21281         0.61103
C         42.37884        54.35116         0.06727
C         41.11363        54.96972         0.05718
C         44.91597        45.82205        -0.10529
C         43.72648        46.52369         0.06309
C         45.01585        48.55758         0.74036
C         43.70502        47.89133         0.37246
C         45.00633        50.04910         0.54231
C         43.75453        50.78945         0.93587
C         44.89551        52.86774         0.09799
C         43.71537        52.20908         0.40681
C         44.84965        54.29682        -0.42589
C         43.59323        55.05296        -0.04508
C         44.83782        57.15771        -0.00466
C         43.64737        56.46762         0.00428
C         47.42795        44.36980        -0.60983
C         47.40954        45.76332        -0.36790
C         46.18035        46.48421        -0.09794
C         47.43916        48.59842        -0.01211
C         46.22275        47.86934         0.14811
C         47.41596        50.02737        -0.01084
C         46.16386        50.74204         0.19922
C         47.33051        52.89176        -0.52026
C         46.12969        52.16714         0.03116
C         47.34296        54.35366        -0.12671
C         46.13221        55.04581        -0.10207
C         47.29610        57.20224         0.23724
C         46.10438        56.48540         0.04931
C         47.34645        58.63521         0.34130
C         49.86802        44.34659        -0.62077
C         48.61992        43.68579        -0.75511
C         49.87222        45.73768        -0.42266
C         48.65053        46.45907        -0.32598
C         49.88889        48.61736        -0.38156
C         48.66068        47.89372        -0.21805
C         49.84172        50.03179        -0.39449
C         48.62368        50.74287        -0.22725
C         49.83759        52.90873        -0.27281
C         48.63435        52.17961        -0.28422
C         49.82223        54.34867        -0.07641
C         48.58843        55.02040         0.06368
C         49.80033        57.19030         0.00573
C         48.57628        56.45831         0.52314
C         49.77730        58.68425        -0.10631
C         48.50697        59.34567         0.24461
C         52.37248        41.51614        -0.90764
C         51.16198        42.21656        -0.82450
C         52.37516        44.32158        -0.69535
C         51.12968        43.60644        -0.70009
C         52.39691        45.73300        -0.56095
C         51.15736        46.45744        -0.10511
C         52.36553        48.58493        -0.63403
C         51.13624        47.91540        -0.48154
C         52.34534        50.04855        -0.88895
C         51.05548        50.79455        -0.71361
C         52.31614        52.93483        -0.32693
C         51.09436        52.24056        -0.41486
C         52.29638        54.35772        -0.09171
C         51.08068        55.03242         0.00820
C         52.29075        57.20492        -0.42012
C         51.12573        56.51744         0.30483
C         52.26922        58.68890        -0.07755
C         51.08672        59.39427        -0.01034
C         52.25098        61.56363         0.12512
C         51.10362        60.83928         0.05572
C         54.88388        40.01134        -0.70827
C         54.87101        41.43854        -0.85612
C         53.60452        42.17822        -0.90837
C         54.82850        44.34290        -0.96630
C         53.60626        43.60950        -0.84945
C         54.83774        45.73429        -0.89532
C         53.61153        46.44694        -0.65504
C         54.87050        48.61688        -0.26048
C         53.59581        47.88365        -0.59490
C         54.89596        50.08564        -0.64375
C         53.61597        50.83759        -0.81236
C         54.79024        52.93503        -0.14060
C         53.58454        52.26414        -0.43760
C         54.81030        54.35722         0.03475
C         53.56284        55.08730        -0.01331
C         54.85265        57.18325        -0.17281
C         53.57603        56.47373        -0.07173
C         54.82244        58.71159        -0.13259
C         53.53431        59.37485         0.20934
C         54.83175        61.60464         0.13276
C         53.54309        60.90889         0.34494
C         54.87916        63.00889         0.00650
C         57.32510        39.97234        -0.54650
C         56.05850        39.31199        -0.61290
C         57.32853        41.42224        -0.63489
C         56.08278        42.12123        -0.87247
C         57.28802        44.32928        -0.77111
C         56.09341        43.57490        -1.30849
C         57.38118        45.77682        -1.13882
C         56.06280        46.54515        -1.29275
C         57.36050        48.60959        -0.54027
C         56.14390        47.92188        -0.66553
C         57.40032        50.13773        -0.48081
C         56.08765        50.82866        -0.21390
C         57.25962        52.92957         0.29840
C         56.04724        52.20420        -0.04597
C         57.27375        54.30783         0.40059
C         56.04903        55.04830         0.19411
C         57.32141        57.19050         0.30959
C         56.10418        56.46996         0.13045
C         57.27610        58.66624         0.44728
C         56.05744        59.45089         0.15896
C         57.33007        61.58996         0.04144
C         56.04241        60.84952         0.17690
C         57.33146        63.08050         0.07598
C         56.06867        63.72395        -0.01004
C         59.76275        37.13270        -0.18940
C         58.59385        37.81768        -0.46205
C         59.78344        39.93907        -0.06534
C         58.52897        39.23637        -0.38965
C         59.77957        41.45473        -0.16144
C         58.53041        42.12995        -0.50858
C         59.82667        44.32840        -0.33149
C         58.54031        43.60055        -0.43192
C         59.84543        45.71316        -0.34382
C         58.64200        46.48034        -0.75590
C         59.88615        48.62142        -0.32384
C         58.59906        47.92768        -0.52846
C         59.85284        50.08524         0.01614
C         58.49521        50.62450         0.46201
C         59.79077        52.87207         0.66427
C         58.48896        52.14549         0.61120
C         59.78512        54.33640         0.27668
C         58.53763        55.05502         0.83633
C         59.81787        57.21325         0.54394
C         58.55820        56.53228         0.48602
C         59.86287        58.64718         0.51622
C         58.58500        59.38933         0.60176
C         59.86586        61.58467         0.54108
C         58.60820        60.83971         0.23463
C         59.82523        63.06301         0.33513
C         58.54398        63.77966         0.08991
C         59.80640        65.89940         0.02367
C         58.62776        65.21677         0.05458
C         62.33368        35.59169         0.57473
C         62.17300        37.05315         0.56304
C         60.99979        37.79643         0.06004
C         62.31561        39.90394        -0.24680
C         61.07198        39.20432        -0.06682
C         62.27466        41.37744        -0.79838
C         61.05726        42.17432        -0.35586
C         62.28805        44.31877        -0.14199
C         61.05875        43.56302        -0.28803
C         62.27369        45.68530         0.07905
C         61.06758        46.44706        -0.08308
C         62.33547        48.55445         0.30931
C         61.10906        47.84609        -0.02721
C         62.32777        49.99641         0.79615
C         61.08035        50.77616         0.47492
C         62.32517        52.85638         0.99834
C         61.07115        52.12641         0.57861
C         62.29633        54.34428         0.70537
C         61.09326        55.04263         0.58559
C         62.31310        57.16020         0.62733
C         61.07124        56.47326         0.57202
C         62.30753        58.62060         0.80744
C         61.06683        59.37584         0.57787
C         62.35243        61.50958         0.49057
C         61.13740        60.80947         0.51177
C         62.37900        62.95987         0.11691
C         61.09983        63.72660        -0.08233
C         62.43407        65.93711         0.09334
C         61.11017        65.22751        -0.14319
C         62.46968        67.34448         0.53753
C         64.79625        35.71387         0.88422
C         63.53531        34.99118         0.80460
C         64.76981        37.07332         0.63920
C         63.50719        37.83671         0.53840
C         64.76040        39.50530        -0.72370
C         63.48590        39.12377        -0.17551
C         64.77788        41.69244        -0.94201
C         63.53365        42.22310        -0.59528
C         64.76908        44.29565        -0.20701
C         63.54179        43.59045        -0.22770
C         64.75052        45.76851        -0.13476
C         63.53707        46.37954         0.52445
C         64.78880        48.59719         0.84032
C         63.52195        47.87723         0.41229
C         64.80365        50.05935         0.44515
C         63.58366        50.75996         0.43608
C         64.78979        52.88108         0.46387
C         63.57150        52.16321         0.49454
C         64.78321        54.32622         0.55678
C         63.55380        55.04086         0.63643
C         64.80802        57.19087         0.42092
C         63.55072        56.47447         0.58603
C         64.84259        58.61395         0.39634
C         63.63455        59.36762         0.73652
C         64.82216        61.50194         0.41940
C         63.60816        60.82480         0.51332
C         64.83913        62.96509         0.78631
C         63.61469        63.73612         0.35498
C         64.88768        65.82441         0.64890
C         63.64077        65.11552         0.38938
C         64.91066        67.24469         0.77772
C         63.63950        67.94806         0.84061
C         67.37167        32.98972         1.49281
C         66.15421        33.63512         1.34973
C         67.32273        35.68653         0.86145
C         66.08900        35.01405         1.04011
C         67.33625        37.14038         0.63386
C         66.01749        37.84998         0.54728
C         67.19975        39.91408        -0.21850
C         65.97062        39.06920        -0.27058
C         67.20310        41.40793        -0.26943
C         66.00799        42.24006        -0.55488
C         67.25893        44.34616        -0.18587
C         66.01481        43.63029        -0.27921
C         67.30284        45.74569        -0.12030
C         66.03937        46.52181        -0.11316
C         67.25794        48.58298         0.41704
C         66.07960        47.91413         0.41126
C         67.29290        50.03173         0.86170
C         66.02130        50.76448         0.47000
C         67.29096        52.90784         0.73990
C         66.01415        52.16482         0.43427
C         67.23087        54.32294         0.24034
C         66.02868        55.02828         0.34981
C         67.24326        57.16860        -0.04716
C         66.01204        56.46802         0.22422
C         67.21511        58.60263        -0.16569
C         66.03300        59.33119         0.08530
C         67.25785        61.50863         0.12165
C         66.04967        60.79440         0.19741
C         67.33137        62.94685         0.29796
C         66.10373        63.69169         0.44122
C         67.40591        65.76933         0.68870
C         66.10397        65.07914         0.56040
C         67.42085        67.27160         0.81297
C         66.12979        67.97625         0.76375
C         67.37506        70.04382         0.34514
C         66.18482        69.38160         0.55822
C         69.94042        31.62409         1.90258
C         69.88256        32.98480         1.52183
C         68.60733        33.65808         1.31039
C         69.82991        35.75779         0.72623
C         68.58030        35.03190         0.95599
C         69.83889        37.09384         0.23175
C         68.53675        37.74598        -0.02944
C         69.76238        39.96149        -0.53950
C         68.49732        39.19034        -0.42122
C         69.76599        41.32501        -0.53982
C         68.53849        42.10455        -0.21494
C         69.77675        44.35644        -0.34104
C         68.52993        43.60296        -0.18179
C         69.76530        45.71995        -0.06410
C         68.53106        46.43232         0.00152
C         69.79959        48.61206         0.22845
C         68.50767        47.93568        -0.16315
C         69.78982        50.03151         0.33485
C         68.55029        50.76481         0.44502
C         69.76992        52.88107         0.21309
C         68.54100        52.14311         0.36973
C         69.75246        54.28483        -0.02498
C         68.43516        54.95028        -0.40583
C         69.66980        57.15420        -0.65327
C         68.43300        56.45601        -0.28030
C         69.72003        58.62169        -0.60547
C         68.42715        59.31562        -0.58179
C         69.77583        61.46275        -0.22800
C         68.45993        60.84158        -0.38908
C         69.81479        62.84975         0.24603
C         68.55607        63.61031         0.25233
C         69.90547        65.80357         0.29799
C         68.59016        65.10217         0.02815
C         69.91153        67.22577         0.40605
C         68.67437        67.97483         0.50400
C         69.87217        70.07796         0.07079
C         68.64474        69.37007         0.31080
C         69.89595        71.36688        -0.48810
C         72.35131        31.70909         2.00408
C         71.15334        30.99298         2.13841
C         72.32093        33.04336         1.62399
C         71.09872        33.70714         1.37008
C         72.25931        35.81616         0.67066
C         71.07069        35.09979         0.93553
C         72.24206        37.11292         0.17550
C         71.02860        37.78752        -0.06395
C         72.25721        39.96881        -0.63988
C         71.00942        39.13227        -0.82223
C         72.26426        41.31066        -0.67170
C         71.01499        42.10210        -0.79879
C         72.25652        44.43636        -0.65243
C         71.01248        43.62854        -0.70936
C         72.25573        45.72565        -0.27321
C         71.05076        46.39022         0.36082
C         72.20854        48.62353         0.48698
C         71.00758        47.90656         0.29288
C         72.22215        50.00636         0.49622
C         71.01872        50.74316         0.40374
C         72.20649        52.93675         0.34214
C         71.00784        52.18896         0.33842
C         72.18419        54.30159         0.13433
C         70.96788        54.98033        -0.10958
C         72.19828        57.22533        -0.38291
C         70.99955        56.39788        -0.55846
C         72.16153        58.57560        -0.51182
C         70.92234        59.31459        -0.63867
C         72.17776        61.52440        -0.64321
C         70.94960        60.77126        -0.49429
C         72.25028        62.86648        -0.42725
C         71.14163        63.60104         0.19311
C         72.33214        65.80534         0.29508
C         71.12117        65.09715         0.22872
C         72.34103        67.19851         0.37313
C         71.14836        67.92548         0.41061
C         72.38357        70.10845        -0.00438
C         71.15566        69.43927         0.55343
C         72.33400        71.34039        -0.58446
C         71.09085        72.00298        -0.80561
O         41.25399        51.62723         1.96284
O         58.30479        46.09501        -2.21328
O         61.75824        63.12004        -1.22870
O         57.55744        44.08029         0.62833
O         58.12339        61.08047        -1.12261
O         65.23751        46.41874        -1.36013
O         68.68951        42.76405         1.09634
O         66.83519        37.92077         1.76969
O         67.10210        40.67672         1.02881
O         68.23891        60.23015        -1.71138
O         70.89195        42.91860        -2.01149
O         61.88954        65.75903        -1.26248
O         49.65069        57.78602        -1.29278
O         54.47335        50.48294        -1.98058
O         51.56715        50.43606        -2.06837
O         60.04103        49.69049        -1.37092
O         59.68371        40.77139         1.15791
O         53.57229        60.01886         1.51545
O         57.81323        59.07936         1.79402
O         59.07091        52.53791         1.91539
O         67.60580        66.35346         1.99027
O         64.77813        40.51166        -1.69699
O         68.34649        38.13037        -1.44698
O         62.70933        37.73265         1.74305
O         62.41665        49.94997         2.24211
O         54.85846        58.02590        -1.42687
O         70.65835        63.02596         1.45269
O         70.33210        56.57902        -1.85685
O         59.82976        62.49085         1.70239
O         63.02999        59.01207         2.02805
O         55.88230        46.81913        -2.71380
H         56.78660        46.80455        -3.11256
O         39.82868        50.16074        -1.01242
H         39.02936        49.68396        -1.31907
O         57.73242        50.59155        -1.81787
H         56.97186        50.39227        -2.40562
O         68.28332        54.68980        -1.85597
H         69.00108        55.21143        -2.29450
O         51.40469        56.67517         1.71650
H         50.57902        56.45741         2.21155
O         64.80221        62.93588         2.26927
H         65.00151        63.84225         2.58925
O         48.70965        56.43304         1.99508
H         47.94510        55.93401         2.35419
O         64.74751        48.63352         2.31495
H         63.88175        49.14120         2.51814
O         56.23375        43.57542        -2.75802
H         55.40243        43.23091        -3.14586
O         43.80570        50.90857         2.40676
H         42.92271        51.26288         2.68027
O         62.10773        41.21107        -2.24299
H         62.96304        40.86319        -2.58625
O         63.66950        46.09400         1.95626
H         64.04233        46.90200         2.39458
O         44.74962        54.16420        -1.88833
H         45.57706        53.69773        -2.18639
O         71.15783        46.10827         1.79883
H         71.00474        45.14901         1.93458
O         58.21878        50.04887         1.75171
H         58.69878        50.58950         2.42062
O         47.16145        52.87041        -2.00459
H         47.96004        53.28866        -2.39455
O         42.31842        52.52519        -1.44444
H         43.04603        53.02815        -1.88934
O         68.40792        48.14385        -1.61667
H         67.56645        47.73840        -1.92047
O         54.88496        48.67021         1.21356
H         54.91645        47.75158         1.55606
O         67.32827        52.98945         2.21160
H         67.30310        52.05459         2.53954
O         45.13803        48.33643         2.20236
H         45.12458        47.36642         2.34813
O         51.24248        46.45015         1.38283
H         51.21910        45.51115         1.66744
O         62.40606        52.70069         2.44788
H         62.40944        51.70462         2.60543
O         70.95827        38.76649        -2.23024
H         70.07426        38.35165        -2.37744
O         67.27654        50.05473         2.32960
H         66.44865        49.58079         2.60574
O         71.19822        69.68102         2.01579
H         71.17814        70.65309         2.14601
O         59.63971        54.38907        -1.17073
H         60.39682        53.92174        -1.58207
O         68.34265        65.28935        -1.41321
H         69.00539        64.76614        -1.91152
O         58.57590        55.07533         2.27869
H         58.67895        54.14265         2.59163
O         52.13657        57.05333        -1.84810
H         52.95368        57.40947        -2.26477
H         37.57564        48.99434         1.57705
H         35.54127        50.25655         2.20631
H         37.46948        53.96157         1.13166
H         35.47786        52.74405         1.95482
H         39.09534        47.94081         0.83559
H         38.96595        54.80972         0.06039
H         41.23037        46.81829         0.72621
H         41.04458        56.06143        -0.04790
H         44.85920        44.75152        -0.33979
H         42.78317        45.98408        -0.10082
H         44.80714        58.25379         0.04080
H         42.71388        57.04068         0.09461
H         46.48828        43.80655        -0.68163
H         46.41195        59.19303         0.49881
H         48.58486        42.60580        -0.94895
H         48.48002        60.43544         0.38190
H         52.32848        40.42143        -0.97350
H         50.22992        41.63656        -0.83797
H         52.20715        62.65507         0.00704
H         50.15300        61.37563        -0.07136
H         53.93825        39.45401        -0.69496
H         53.93816        63.57438        -0.02901
H         56.01307        38.21794        -0.52813
H         56.01629        64.81952        -0.05686
H         59.74129        36.03386        -0.17074
H         57.68814        37.23715        -0.68412
H         59.78575        66.99736        -0.01926
H         57.69532        65.79859         0.06590
H         61.45099        34.96233         0.38687
H         61.53361        67.91978         0.55681
H         63.56313        33.89262         0.83482
H         63.63390        69.00610         1.13713
H         67.36037        31.92594         1.76425
H         65.23196        33.06134         1.51259
H         67.34855        71.13226         0.19964
H         65.25381        69.96456         0.53917
H         69.01587        31.04377         2.02081
H         68.94956        71.86346        -0.74692
H         73.31332        31.21489         2.19735
H         71.17381        29.93537         2.43521
H         73.27289        33.58163         1.52621
H         73.23560        35.33742         0.82205
H         73.20201        37.59710        -0.04718
H         73.22298        39.44685        -0.57352
H         73.22030        41.85227        -0.60979
H         73.17365        43.98529        -1.06010
H         73.20138        46.28677        -0.31180
H         73.15643        48.08071         0.60273
H         73.18568        50.52415         0.59156
H         73.17549        52.43862         0.47416
H         73.13608        54.84695         0.09885
H         73.14998        56.74378        -0.12013
H         73.09601        59.13931        -0.38741
H         73.05174        61.01584        -1.07387
H         73.15162        63.41745        -0.73265
H         73.28643        65.26121         0.28439
H         73.30976        67.71282         0.41965
H         73.36274        69.64244         0.17431
H         73.26270        71.83067        -0.91111
H         71.07962        72.99631        -1.27315
