         668
 CSIRO Nanostructure Databank - Neutral Graphene Oxide Data Set
C          5.91437        31.87779         1.40577
C          5.89837        33.23130         1.30365
C          8.35049        27.57018         1.10339
C          8.35868        28.95423         1.18314
C          7.12931        29.72208         1.24982
C          8.43588        31.84155         1.39011
C          7.13005        31.09066         1.27842
C          8.39477        33.22866         0.78504
C          7.09279        33.99247         0.87547
C          8.40638        36.11477         0.90983
C          7.18364        35.44221         1.00732
C          8.46414        37.53175         0.90684
C         10.64852        23.26969         0.61228
C         10.67878        24.63487         0.50418
C          9.49016        25.41349         0.72396
C         10.82921        27.46586         0.81338
C          9.54352        26.79224         0.87901
C         10.91691        28.91090         1.23075
C          9.61432        29.67354         1.08948
C         10.92000        31.75952         0.86298
C          9.65246        31.04263         0.98906
C         10.91328        33.22578         0.50207
C          9.65340        33.99099         0.82323
C         10.91911        36.08858         0.66512
C          9.65880        35.36412         0.81762
C         10.92855        37.49823         0.59518
C          9.68281        38.24556         0.77050
C         10.94292        40.38835         0.78518
C          9.69034        39.64184         0.75487
C         10.97549        41.86215         0.62102
C         13.31098        18.96890         0.29252
C         13.21536        20.29610         0.59218
C         11.89738        20.96403         0.72992
C         13.19860        23.13430         0.55647
C         11.87572        22.45981         0.74524
C         13.22994        24.59297         0.29448
C         11.92441        25.36279         0.01670
C         13.25858        27.49974         0.40266
C         11.98943        26.80341         0.47978
C         13.33448        28.87118         0.51692
C         12.02892        29.61819         0.45856
C         13.44392        31.73723         1.08060
C         12.10315        31.07792         0.80178
C         13.40540        33.18833         0.71727
C         12.15919        33.95313         1.01153
C         13.28708        36.02890         0.03724
C         12.13742        35.38048         0.51760
C         13.31912        37.44483        -0.01279
C         12.15220        38.15992         0.33782
C         13.39199        40.32535        -0.03200
C         12.21948        39.61958         0.51275
C         13.28416        41.80603        -0.36022
C         12.09020        42.52139         0.24705
C         13.37293        44.71020        -0.15161
C         12.10357        44.04097         0.33729
C         13.36126        46.12640        -0.25832
C         15.75171        14.71846        -0.33632
C         15.82816        16.20358        -0.08491
C         14.66815        16.93774        -0.17705
C         15.70500        18.89203         0.86548
C         14.59234        18.29213         0.29796
C         15.60868        20.27573         1.35890
C         14.41091        21.05419         0.96450
C         15.62829        23.21735         1.48557
C         14.41512        22.41945         1.02490
C         15.70150        24.60053         0.88902
C         14.41058        25.37880         0.86938
C         15.78473        27.41193         0.25171
C         14.48406        26.68457         0.08356
C         15.79925        28.84351         0.20938
C         14.58336        29.58147         0.39642
C         15.84587        31.67091         0.26025
C         14.64022        30.99150         0.51695
C         15.88900        33.17644         0.36646
C         14.54280        33.79644         0.04165
C         15.71830        35.95659        -0.89782
C         14.46555        35.23284        -0.39394
C         15.71742        37.45339        -0.62673
C         14.57128        38.15015        -0.31653
C         15.76769        40.36394        -0.61686
C         14.53561        39.62377        -0.32681
C         15.78491        41.77206        -0.55322
C         14.58939        42.53351        -0.02888
C         15.67429        44.67614        -1.11724
C         14.51853        43.98647        -0.43454
C         15.77940        46.14931        -0.73039
C         14.56234        46.86403        -0.43947
C         15.80835        48.99973        -0.42682
C         14.59760        48.27004        -0.31180
C         15.85573        50.41168        -0.32921
C         18.33856        10.68016        -1.53500
C         18.33807        12.04543        -1.13533
C         17.12007        12.77038        -1.02627
C         18.28481        14.71511        -0.09009
C         17.09317        14.06107        -0.52217
C         18.23246        16.06265         0.42043
C         17.05407        16.79890         0.37378
C         18.12382        18.71777         1.65517
C         17.07273        18.29688         0.62128
C         18.16489        20.24135         1.82879
C         16.88622        21.02874         1.71298
C         18.13853        23.12055         1.11487
C         16.93742        22.46724         1.41147
C         18.13936        24.45881         0.62098
C         16.91028        25.20946         0.57273
C         18.21553        27.34824         0.20349
C         16.95444        26.66125         0.29581
C         18.24335        28.76480         0.02004
C         17.02720        29.52827         0.05502
C         18.25319        31.66861        -0.35925
C         17.04502        30.96304        -0.01646
C         18.24961        33.06653        -0.51633
C         17.06496        33.83329        -0.32180
C         18.24084        35.95737        -0.68761
C         17.03215        35.23534        -0.57164
C         18.24369        37.41444        -0.73157
C         16.96482        38.16354        -1.11326
C         18.19280        40.33668        -0.83043
C         16.97419        39.63803        -0.76958
C         18.19153        41.73521        -0.97944
C         16.97984        42.49208        -0.85057
C         18.18309        44.65184        -1.32028
C         16.96928        43.91064        -0.97107
C         18.21056        46.15386        -1.23029
C         16.97369        46.85529        -0.82017
C         18.26811        48.97370        -0.75199
C         17.02995        48.27629        -0.65453
C         18.30501        50.39031        -0.63322
C         17.07442        51.12153        -0.43568
C         18.34246        53.24791        -0.39920
C         17.12254        52.53300        -0.33674
C         18.38034        54.65654        -0.28979
C         20.75849         6.38418        -2.42961
C         20.78352         7.82867        -1.98290
C         19.54528         8.53515        -1.85862
C         20.81151        10.57011        -1.31862
C         19.50888         9.90334        -1.56058
C         20.82005        12.01100        -0.90806
C         19.54006        12.71349        -0.75491
C         20.77904        14.63906         0.19014
C         19.52993        14.01780        -0.22569
C         20.75802        16.13405         0.41230
C         19.47495        16.62255         1.09188
C         20.68560        18.72396         1.89118
C         19.46434        18.12740         1.27106
C         20.70416        20.18546         1.51044
C         19.46955        20.96654         1.72610
C         20.59759        22.90080         0.56366
C         19.47213        22.48813         1.54015
C         20.63591        24.39274         0.46039
C         19.38583        25.09772         0.03013
C         20.64137        27.31012         0.11227
C         19.43180        26.61366         0.19579
C         20.66466        28.71381        -0.13992
C         19.47252        29.43584        -0.22109
C         20.75137        31.54623        -0.90916
C         19.40622        30.80770        -0.88192
C         20.76255        33.05398        -1.03087
C         19.42776        33.80243        -1.15999
C         20.70296        35.89326        -0.50722
C         19.49682        35.24391        -0.69316
C         20.67204        37.35238        -0.10301
C         19.42324        38.08625        -0.57344
C         20.71563        40.20413        -1.04038
C         19.45905        39.59314        -0.46521
C         20.72851        41.67723        -1.23077
C         19.44351        42.43754        -1.31980
C         20.74714        44.64810        -1.04755
C         19.48931        43.92707        -1.39407
C         20.72423        46.10246        -0.95454
C         19.51015        46.83799        -1.04093
C         20.74823        48.94589        -0.84516
C         19.50799        48.23986        -0.88605
C         20.77143        50.37040        -0.81263
C         19.54443        51.09795        -0.69580
C         20.81647        53.21971        -0.58956
C         19.57969        52.52061        -0.57074
C         20.84104        54.63752        -0.42963
C         19.60347        55.36796        -0.30597
C         20.87368        57.48647        -0.23188
C         19.65073        56.77746        -0.19631
C         20.90703        58.89950        -0.19785
C         23.01154         4.83254        -5.08295
C         21.86690         5.18085        -4.36324
C         23.20392         6.60791        -2.91598
C         21.95834         6.06576        -3.28170
C         23.29041         7.60679        -1.77827
C         21.99450         8.39781        -1.63622
C         23.25282        10.41984        -0.68018
C         21.93190         9.67881        -0.82007
C         23.21808        11.87017        -0.32760
C         22.01951        12.57017        -0.25858
C         23.19681        14.46680         0.90952
C         21.96252        13.92723         0.21744
C         23.24668        15.97173         1.02109
C         21.99991        16.70530         1.07841
C         23.20045        18.74766         1.80496
C         21.95927        18.01193         1.50030
C         23.21505        20.18656         1.45733
C         21.92714        20.86229         1.23889
C         23.15803        22.97691         0.79860
C         21.89837        22.23664         0.96108
C         23.14150        24.45762         1.01515
C         21.84913        25.16661         0.68939
C         23.17531        27.28964         0.32275
C         21.92041        26.51659        -0.00189
C         23.24791        28.64493        -0.24252
C         21.95516        29.38576        -0.44932
C         23.18757        31.56107        -0.36672
C         21.99058        30.86253        -0.47593
C         23.18018        33.01312        -0.46482
C         22.01171        33.75765        -0.64888
C         23.16817        35.93248        -0.33180
C         21.98083        35.20392        -0.51507
C         23.16361        37.37827        -0.29663
C         21.97702        38.05852        -0.41748
C         23.25763        40.28270        -0.48536
C         22.01271        39.49057        -0.76276
C         23.11051        41.74756        -0.20663
C         21.88771        42.45358        -0.69591
C         23.10899        44.59812        -0.27407
C         21.89102        43.93376        -0.77812
C         23.14492        46.09641        -0.29437
C         21.93074        46.80485        -0.72905
C         23.22719        48.89917        -0.69611
C         21.96589        48.21314        -0.76799
C         23.22817        50.30241        -0.84943
C         22.02337        51.04924        -0.87468
C         23.27224        53.17375        -0.78623
C         22.05577        52.49421        -0.79452
C         23.33035        54.58481        -0.38624
C         22.07384        55.34891        -0.36576
C         23.36727        57.47452        -0.41526
C         22.11510        56.75211        -0.31214
C         23.35941        58.90078        -0.43389
C         22.12364        59.61628        -0.30076
C         23.35620        61.72338        -0.43336
C         22.14955        61.03522        -0.29811
C         24.25481         5.33610        -4.70101
C         25.70954         6.68652        -3.15649
C         24.35776         6.21780        -3.61589
C         25.65520         8.06537        -2.52678
C         24.52086         8.50365        -1.92665
C         25.70118        10.69881        -1.37455
C         24.51324         9.80293        -1.20226
C         25.69727        12.01608        -0.68777
C         24.45535        12.57534        -0.11721
C         25.71917        14.58482         0.51595
C         24.47585        13.87127         0.36563
C         25.71629        15.87721         1.04093
C         24.47383        16.57207         1.28981
C         25.74768        18.77329         1.56492
C         24.51156        17.98693         1.72036
C         25.69983        20.14128         1.48316
C         24.43136        20.82911         1.29878
C         25.73435        23.02284         0.90828
C         24.46577        22.24400         0.86409
C         25.72262        24.38141         0.79502
C         24.48074        25.21440         1.06593
C         25.73266        27.24553         0.12917
C         24.42514        26.51009         0.26831
C         25.70113        28.73345         0.15828
C         24.48847        29.43590        -0.05824
C         25.67619        31.57455         0.09056
C         24.45526        30.85363        -0.10976
C         25.70306        33.02499         0.01453
C         24.47927        33.71370        -0.43335
C         25.66763        35.91506         0.13480
C         24.47389        35.24715        -0.41231
C         25.56095        37.36108         0.42829
C         24.50635        38.10265        -0.36136
C         25.55369        40.28034         0.40981
C         24.46430        39.57961         0.01069
C         25.54400        41.79197         0.60939
C         24.36170        42.50613        -0.02114
C         25.64227        44.60911        -0.01217
C         24.39175        43.86050        -0.18171
C         25.64079        46.06331        -0.06858
C         24.45459        46.78388        -0.30687
C         25.70817        48.90425        -0.43476
C         24.46066        48.18567        -0.52271
C         25.74704        50.28331        -0.61691
C         24.52132        50.97649        -1.01281
C         25.83674        53.18464        -0.85961
C         24.53536        52.49066        -1.05609
C         25.81565        54.65494        -1.18699
C         24.63824        55.33351        -0.51011
C         25.83084        57.49903        -0.76039
C         24.59303        56.79796        -0.58669
C         25.80719        58.90321        -0.74229
C         24.58869        59.61550        -0.58831
C         24.55996        61.03673        -0.58097
C         26.94415         8.86873        -2.61545
C         28.16332        10.60086        -1.26359
C         27.00700        10.05393        -1.68214
C         28.21877        11.76997        -0.30475
C         26.97380        12.62376        -0.29267
C         28.24067        14.59539         0.42329
C         26.97926        13.90229         0.22594
C         28.26885        15.91452         0.88387
C         27.00652        16.54348         1.34724
C         28.28308        18.78584         1.47417
C         27.02186        18.02722         1.62958
C         28.23532        20.15483         1.50938
C         26.96268        20.96453         1.66739
C         28.25965        23.03534         0.98414
C         27.00362        22.21190         0.75428
C         28.23065        24.42499         0.87234
C         26.96893        25.14055         0.71121
C         28.22680        27.25310         0.55294
C         26.96456        26.50543         0.50529
C         28.18775        28.74423         0.53441
C         26.88163        29.45396         0.41727
C         28.17082        31.57117         0.42784
C         26.87024        30.86131         0.37806
C         28.15071        33.09385         0.41925
C         26.84402        33.77106         0.30933
C         27.98515        35.94590         1.00995
C         26.79748        35.21013         0.47686
C         28.06509        37.41350         0.83313
C         26.78218        38.12588         0.86960
C         28.08756        40.26874         0.36387
C         26.81941        39.64293         0.92894
C         28.10020        41.69336         0.26971
C         26.81215        42.41322        -0.04395
C         28.05430        44.63548         0.60018
C         26.82545        43.90795         0.12526
C         28.12680        46.05524         0.06538
C         26.90292        46.77317        -0.03713
C         28.18327        48.88343        -0.18657
C         26.93185        48.17849        -0.19748
C         28.22405        50.29870        -0.29774
C         26.94492        51.07031        -0.14238
C         28.28663        53.18575        -0.68031
C         26.99142        52.49987        -0.63691
C         28.29948        54.60865        -0.78504
C         27.11596        55.36767        -0.88597
C         27.07094        56.76366        -0.81469
C         29.45311        12.60672        -0.42445
C         30.68090        14.66631         0.07873
C         29.46779        13.93158         0.01691
C         30.70961        16.00739         0.50650
C         29.48937        16.65775         0.91481
C         30.75526        18.73639         1.22410
C         29.52691        18.04991         1.25672
C         30.81559        20.16283         1.55338
C         29.48017        20.92794         1.62877
C         30.72275        23.00837         1.23350
C         29.49786        22.35312         1.27517
C         30.76842        24.46181         0.85246
C         29.45589        25.17907         0.98621
C         30.66675        27.33049         1.20036
C         29.45858        26.56120         0.98953
C         30.62530        28.72418         1.26738
C         29.29576        29.44379         1.28990
C         30.56107        31.57617         1.12962
C         29.38804        30.89785         0.93489
C         30.52533        33.05096         1.42665
C         29.34130        33.78752         0.87326
C         30.53778        35.98509         0.84966
C         29.30246        35.22602         1.13662
C         30.50632        37.32050         0.55346
C         29.26089        38.07101         0.61144
C         30.52659        40.17126         0.11055
C         29.30276        39.52030         0.36500
C         30.52075        41.64875        -0.18975
C         29.30410        42.38687         0.31075
C         30.65781        44.54879         0.10524
C         29.35699        43.84213         0.46164
C         30.59238        45.94763        -0.46070
C         29.35741        46.73145        -0.07071
C         30.69562        48.86316         0.09956
C         29.39453        48.13419        -0.13995
C         30.66993        50.27891        -0.40848
C         29.47163        50.99477        -0.45077
C         29.45955        52.43070        -0.62158
C         31.93237        16.72973         0.49414
C         33.20205        18.83024         0.76489
C         31.97613        18.08882         0.83052
C         33.25102        20.21904         0.93909
C         32.02861        20.92694         1.24303
C         33.22226        23.08312         1.10578
C         31.98374        22.31838         1.26218
C         33.20647        24.44914         1.18630
C         31.92437        25.14740         1.56497
C         33.11619        27.32299         1.49743
C         31.94516        26.64300         1.34887
C         33.10804        28.79448         1.80385
C         31.82577        29.48502         1.42677
C         33.06175        31.60398         1.15064
C         31.81414        30.87554         1.34701
C         33.04204        32.95645         0.88365
C         31.84170        33.77413         1.15947
C         32.98973        35.87629         0.19228
C         31.81410        35.22946         0.81493
C         33.00689        37.23078         0.04368
C         31.70184        37.97745        -0.09514
C         32.99661        40.12265        -0.09601
C         31.78429        39.47701         0.06494
C         33.03142        41.57334        -0.51873
C         31.86134        42.32139         0.14201
C         33.08831        44.47177        -0.36543
C         31.85784        43.78292        -0.22304
C         33.10047        45.89787        -0.41552
C         31.91130        46.68352        -0.33662
C         31.91883        48.06129        -0.26776
C         34.46278        20.96636         0.81621
C         35.69476        23.10646         0.92942
C         34.48357        22.36353         0.92233
C         35.71504        24.51338         1.03371
C         34.41925        25.28393         0.90227
C         35.65562        27.39624         1.49360
C         34.40776        26.56896         1.74212
C         35.59767        28.78049         1.40697
C         34.35522        29.51559         1.36443
C         35.55051        31.60419         0.78156
C         34.32250        30.86895         1.07791
C         35.51452        32.94690         0.37892
C         34.20420        33.60819         0.24408
C         35.43100        35.73234        -0.68237
C         34.15063        35.04119        -0.19248
C         35.40569        37.24297        -0.51180
C         34.26369        37.92713        -0.23001
C         35.53214        40.13119        -0.27938
C         34.29132        39.39281         0.17655
C         35.52232        41.56728        -0.23822
C         34.33481        42.30599        -0.26792
C         34.30952        43.71163        -0.30798
C         36.89221        25.25285         1.13464
C         38.10348        27.38067         1.09911
C         36.90616        26.68616         1.28281
C         38.20899        28.80971         1.32612
C         36.83385        29.57899         1.43300
C         38.01652        31.68353         0.79986
C         36.81056        30.96839         0.99160
C         37.97283        33.06701         0.48109
C         36.71609        33.72301         0.24732
C         37.89730        35.86878        -0.09567
C         36.68487        35.09992        -0.09151
C         37.89606        37.24199        -0.37217
C         36.68120        37.95624        -0.90149
C         36.66643        39.43357        -0.60144
C         39.36016        29.60606         0.89555
C         40.49705        31.76381         0.59006
C         39.29482        30.98135         0.80004
C         40.45327        33.11384         0.43858
C         39.19212        33.82049         0.35892
C         39.14076        35.18997         0.14573
O         27.07331        17.05140         2.73151
O         18.03199        45.50853        -2.54877
O         28.44932        32.28591        -0.81973
O         14.17883        34.13953        -1.35332
O         24.23769        54.79274         0.78450
O         24.14951         9.65104         0.22791
O         22.64734        28.78362        -1.62342
O         30.22271        20.56301         2.83480
O         19.47038        43.13569        -2.62807
O         32.14876        34.76781         2.21255
O         28.48198        35.54381         2.33637
O         21.14396        11.57091        -2.31101
O         20.98232        32.20314        -2.21655
O         22.04527        42.05992         0.74570
O         11.85936        39.99668         1.89753
O         25.45286        42.02736         1.97660
O         22.29924        24.93874         2.10358
O         37.65600        29.29145         2.59459
O          7.62597        33.42923        -0.42487
O         33.77850        33.98077        -1.15894
O         23.82168        22.52565        -0.45000
O         22.87411        45.36764         0.96454
O         24.57700        51.71256        -2.30921
O         13.49428        23.66787        -0.80506
O         18.86148        20.61820         3.05557
O         25.77675        37.63869         1.83161
O         25.09227        26.58560        -1.03660
O         25.49712        11.88850        -2.20175
O         20.76420        40.76438        -2.37776
O         15.96468        20.58218         2.77293
O         24.69938        34.51141        -1.65083
O         22.96785        39.83588        -1.84946
O         30.29279        44.32800         1.52167
O         23.87407        18.29584         3.01933
O         28.54664        28.05506        -0.68725
O         15.37799        44.67602        -2.55950
H         16.20015        44.99962        -3.00442
O         17.53584        18.92989        -0.61906
H         17.01009        18.56693        -1.36283
O         11.76170        25.45151        -1.42760
H         12.36473        24.77675        -1.82110
O         19.04413        30.50036        -2.25955
H         19.60594        31.06385        -2.84119
O         10.99981        33.26039        -0.94804
H         10.19407        32.84100        -1.31771
O         23.46325         6.86082        -0.52829
H         23.67383         7.52813         0.16521
O         13.12386        41.90324        -1.80078
H         12.35582        41.35834        -2.06979
O         20.22242        22.36106        -0.73988
H         19.85514        23.10651        -1.28303
O         21.52748         9.30464         0.52892
H         22.33910         9.02009         1.00533
O         19.79067        23.06963         2.81461
H         19.37017        22.50605         3.50423
O         31.75407        24.96869         2.99661
H         32.60543        25.24395         3.41483
O         14.69986        42.51213         1.42821
H         15.54137        42.94682         1.67962
O         14.87954        14.42615        -1.43532
H         15.30413        14.74553        -2.25749
O         30.41397        45.70955        -1.89959
H         30.53931        46.56337        -2.36519
O          8.62665        32.10700         2.82357
H          8.80380        31.25029         3.26704
O         25.55895        54.79157        -2.61534
H         26.20160        54.22861        -3.09549
O         26.93489        21.47692         3.02126
H         27.03266        20.72451         3.64207
O         26.61590        42.15257        -1.47822
H         27.30838        42.63636        -1.97629
O         34.31812        25.72697        -0.48546
H         33.93636        24.99512        -1.01438
O         15.65834        35.87107        -2.36135
H         15.28025        34.98323        -2.57586
O         12.01470        34.00004         2.47620
H         12.71075        34.59477         2.82889
O         20.63589        18.60858         3.36541
H         20.87597        17.68330         3.59219
O         20.80475         5.56019        -1.24619
H         21.65251         5.76203        -0.78682
O         30.30621        33.08237         2.87847
H         30.69019        33.93606         3.19729
O         20.58998        37.34361         1.37044
H         20.50199        38.28840         1.64723
O         14.06372        25.70124         2.23886
H         14.41153        24.97823         2.81837
O         15.38435        23.40030         2.95076
H         15.40519        22.48988         3.33802
O         14.41720        26.31959        -1.32583
H         14.50459        27.13779        -1.85811
O         10.98202        44.58785        -0.37269
H         11.13638        44.45060        -1.33019
O         21.98635        26.13020        -1.42982
H         22.27404        26.95056        -1.91070
O         11.24865        28.94448         2.64695
H         10.77030        28.21509         3.09260
O         26.63092         6.63140        -4.23737
H         27.51382         6.88647        -3.88580
O         19.60824        39.86926         0.98503
H         18.75026        39.67046         1.41842
O         26.75363        51.19946         1.32799
H         26.05913        51.87494         1.48566
O         35.53753        35.49085        -2.12142
H         35.00387        34.67546        -2.30084
O         17.76831        18.15519         2.94552
H         18.27701        18.68001         3.61014
O         28.28523        11.14081         1.04208
H         28.42744        11.86159         1.69300
O         16.92966        38.17513        -2.57063
H         16.59683        37.29260        -2.86910
O         34.38621        39.35129         1.64176
H         35.27507        39.01229         1.87811
O         24.97984        38.03812        -1.73267
H         24.34020        38.56390        -2.27329
O         36.80072        37.87323        -2.36477
H         36.48830        36.97187        -2.62709
O         30.31726        41.74998        -1.66276
H         29.60287        41.11954        -1.90102
O         16.04658        33.50829         1.79392
H         16.72625        32.91070         2.17135
O         34.40682        26.18253         3.14874
H         34.37283        27.02076         3.66551
O         20.72575        16.71377        -0.92551
H         21.50292        16.38689        -1.42519
O         27.83445        44.83554         2.02963
H         28.71863        44.98858         2.43571
O         26.94131        39.95417         2.33996
H         26.42089        40.80165         2.51050
O         31.09623        24.52085        -0.57557
H         30.30553        24.23520        -1.08014
O         23.07581        13.98442         2.29621
H         23.81948        14.36946         2.80746
O         19.48786        16.07971         2.44618
H         18.73682        16.51756         2.92215
O         33.16187        28.82949         3.29150
H         32.29143        28.51376         3.61835
O         24.68049        25.65222         2.44127
H         23.79184        25.68202         2.87038
O         19.32876        24.88574        -1.45108
H         20.13385        25.33847        -1.81218
O         28.83340        29.42485         2.68826
H         29.40341        30.03568         3.20361
O         32.09120        42.22989         1.56409
H         31.48464        42.87602         2.00082
O         19.10163        33.89866        -2.57414
H         19.65653        33.23625        -3.04772
O         13.58655        31.64287         2.54530
H         12.89748        32.23695         2.92904
O         32.92028        41.57543        -1.96713
H         31.96102        41.57718        -2.20850
O         27.04697        21.70539        -0.61025
H         26.65925        22.38064        -1.20615
O         28.07578         8.00714        -2.40195
H         28.09662         7.75641        -1.45506
O         31.40475        37.83429        -1.54044
H         32.16199        38.21103        -2.03926
O         11.64613        29.60029        -0.95330
H         11.55922        28.66066        -1.22697
O         11.81526        21.67186         1.99743
O         30.77041        49.00278         1.58165
H         29.97973        49.51199         1.86459
H          4.98024        31.33906         1.62858
H          4.96262        33.78601         1.47036
H          7.38796        27.03716         1.13500
H          6.17403        29.17413         1.24222
H          6.26720        36.01504         1.21652
H          7.52721        38.10143         0.99853
H          9.70333        22.77073         0.87805
H          8.53263        24.88732         0.86016
H          8.73871        40.19394         0.75305
H         10.09763        42.43251         0.96536
H         12.41178        18.39403         0.02628
H         10.98893        20.38673         0.45606
H         11.95383        44.31584         1.41689
H         12.42128        46.66348        -0.06435
H         15.27059        14.25349         0.57166
H         13.75132        16.44814        -0.53567
H         13.66132        48.81367        -0.11473
H         14.92222        50.97062        -0.16600
H         17.37408        10.20282        -1.76535
H         16.17552        12.29248        -1.32449
H         16.18477        53.09047        -0.19364
H         17.43751        55.21252        -0.17962
H         19.80769         6.14587        -2.96632
H         18.60850         8.00212        -2.08033
H         18.70921        57.33975        -0.10707
H         19.96137        59.45669        -0.11821
H         22.93511         4.14518        -5.93706
H         20.88869         4.76176        -4.64008
H         23.35593        62.82251        -0.42965
H         21.20644        61.59019        -0.19238
H         25.16454         5.05307        -5.24706
H         26.06211         5.97413        -2.34090
H         26.74813        59.46533        -0.83682
H         25.50128        61.59295        -0.69617
H         27.03208         9.24438        -3.67241
H         29.11825        10.12612        -1.54017
H         29.26543        55.13170        -0.70828
H         28.01107        57.32996        -0.72636
H         30.40067        12.12066        -0.70196
H         31.61811        14.17898        -0.22785
H         31.62458        50.82067        -0.49133
H         30.42849        52.94772        -0.69268
H         32.85194        16.21637         0.17683
H         34.12439        18.28756         0.50946
H         34.07147        46.41616        -0.41583
H         32.88383        48.59291        -0.27656
H         35.40545        20.42286         0.65108
H         36.65057        22.55916         0.91767
H         36.48860        42.09709        -0.27009
H         35.26084        44.26339        -0.24217
H         37.86113        24.73103         1.08881
H         38.98088        26.84593         0.70480
H         38.85910        37.77507        -0.39821
H         37.57485        39.99313        -0.87748
H         40.31395        29.09177         0.70132
H         41.46353        31.23895         0.60441
H         41.38221        33.69158         0.32513
H         40.07553        35.76737         0.08515
