         252
 CSIRO Nanostructure Databank - Neutral Graphene Oxide Data Set
C         30.45670        31.83894         1.09012
C         30.63490        33.06658         0.67249
C         30.41019        36.18322        -0.01466
C         30.56116        37.40720        -0.21320
C         30.73160        40.45256        -1.22388
C         30.93589        41.61896        -1.65755
C         32.89792        29.14118         1.92726
C         31.84430        29.76479         1.72411
C         32.91190        31.86872         1.35242
C         31.60190        31.12756         1.37604
C         32.88710        33.39761         1.17046
C         31.59456        33.96733         0.46551
C         32.84578        36.10623        -0.04100
C         31.58302        35.25571        -0.32534
C         32.88630        37.51025         0.08645
C         31.64953        38.30963        -0.08237
C         32.53848        40.64001         0.17101
C         31.57944        39.71167        -0.34872
C         32.83132        41.92680        -0.29246
C         31.99309        42.49883        -1.31953
C         33.38200        44.36056        -1.18736
C         32.48813        43.74403        -1.82503
C         35.72641        27.68116         2.27329
C         35.50525        29.12161         2.25780
C         34.19887        29.81670         2.07779
C         35.44780        31.90529         1.32703
C         34.11762        31.23937         1.56593
C         35.44690        33.28112         0.73250
C         34.11127        33.88887         0.41832
C         35.39507        35.95188        -0.26144
C         34.08361        35.30572        -0.12128
C         35.50255        37.43584        -0.04210
C         34.18640        38.16373         0.07680
C         35.38875        40.33458        -0.21804
C         34.35984        39.50996         0.35564
C         35.36984        41.72445        -0.30827
C         34.14412        42.57031         0.23832
C         35.04162        44.99081         0.59421
C         34.22752        44.08882        -0.09189
C         35.70290        46.05099        -0.12663
C         38.03712        27.39596         1.64537
C         36.67644        26.95381         1.98035
C         38.06009        28.90749         1.46164
C         36.88799        29.84799         1.91874
C         37.93444        31.78735         0.61835
C         36.60249        30.99011         0.89033
C         37.76441        33.08180        -0.17210
C         36.61445        33.80542        -0.04696
C         37.80253        35.95806        -0.64363
C         36.55379        35.22879        -0.39132
C         37.78179        37.30914        -0.91768
C         36.45809        38.05671        -1.06436
C         37.82167        40.17509        -0.30671
C         36.54171        39.63860        -0.96902
C         37.85700        41.67980        -0.54290
C         36.61514        42.36218        -0.77715
C         37.94153        44.39704        -1.32148
C         36.72262        43.63567        -1.38718
C         37.92279        45.84988        -1.34924
C         36.67698        46.35538        -0.81812
C         40.40056        24.47210         1.19233
C         39.40576        25.17292         1.39879
C         40.31005        27.20947         0.43005
C         39.06222        26.54406         0.97610
C         40.38429        28.69491         0.37880
C         39.08955        29.43821         0.48425
C         40.25904        31.51895        -0.45851
C         38.99754        30.86155         0.02077
C         40.29412        33.00022        -0.53090
C         38.97582        33.68892        -0.87718
C         40.24996        35.84640        -0.84108
C         39.04794        35.20200        -0.71014
C         40.31594        37.30307        -0.93033
C         39.04233        38.03132        -1.14432
C         40.36401        40.15534        -0.55169
C         39.06064        39.51496        -0.90325
C         40.36872        41.64157        -0.44752
C         39.08230        42.33479        -0.67327
C         40.40562        44.39928        -1.04329
C         39.14548        43.71601        -0.98565
C         40.33514        45.70506        -1.51539
C         39.14444        46.51430        -1.49181
C         40.51851        48.54100        -0.93690
C         39.53550        47.89465        -1.32820
C         42.96355        24.41033         0.51831
C         41.54913        24.87983         0.28806
C         42.79220        27.16814        -0.17377
C         41.64964        26.46388         0.56969
C         42.82923        28.64069        -0.09755
C         41.56343        29.33638         0.06156
C         42.81828        31.51441        -0.28748
C         41.55859        30.76177        -0.34902
C         42.78179        32.93957        -0.47189
C         41.49609        33.63572        -0.65934
C         42.78021        35.82465        -0.86522
C         41.49656        35.05926        -1.19462
C         42.64570        37.18597        -0.26491
C         41.49308        37.97239        -0.73484
C         42.78808        40.07663        -0.07764
C         41.66879        39.45825        -0.90625
C         42.85818        41.57344        -0.12732
C         41.65742        42.37808        -0.50497
C         42.79715        44.52839         0.03772
C         41.67783        43.74981        -0.65663
C         43.03049        46.02351        -0.02984
C         42.14800        46.85586        -0.74744
C         42.74723        48.71681         0.50553
C         41.83323        48.21881        -0.44272
C         43.96794        25.06068         0.22091
C         45.34971        27.23083        -0.23413
C         44.14259        26.43060        -0.27868
C         45.31995        28.65588        -0.27881
C         44.03579        29.34408        -0.24560
C         45.27686        31.50506        -0.26326
C         44.04352        30.80036        -0.22827
C         45.24578        32.97787         0.04748
C         43.98270        33.63986        -0.43126
C         45.19700        35.82812         0.01337
C         44.02987        35.09636        -0.54898
C         45.10981        37.14430         0.38751
C         43.80270        37.85576         0.39392
C         44.90633        39.98491         1.24971
C         43.78314        39.34805         0.49906
C         44.78735        41.46268         1.62239
C         43.96222        42.26295         0.60883
C         44.93313        44.40870         1.60487
C         43.78897        43.73897         0.85826
C         45.20970        45.88405         1.22731
C         43.95524        46.63713         0.87322
C         43.70724        48.01625         0.95576
C         47.77521        27.31401        -0.29420
C         46.68538        26.74892        -0.11540
C         47.96572        28.80652        -0.22035
C         46.53882        29.41719        -0.32041
C         47.74743        31.58936        -0.66577
C         46.51187        30.82585        -0.39085
C         47.68239        33.05912        -0.63342
C         46.48673        33.74458        -0.35211
C         47.64794        35.94069        -0.36677
C         46.47644        35.15943        -0.19190
C         47.64721        37.31075         0.25835
C         46.33567        37.85716         0.79243
C         47.48912        40.08846         1.42721
C         46.23978        39.28119         1.29707
C         47.38422        41.48833         1.90005
C         46.12005        42.12541         1.94818
C         47.19894        44.23170         2.94259
C         45.99781        43.56237         2.29272
C         47.01441        45.68428         2.85509
C         46.13639        46.35476         2.30798
C         50.24220        28.98349        -1.43099
C         48.81272        29.41266        -1.33293
C         50.10164        31.72550        -1.50586
C         48.89121        30.95372        -1.09393
C         50.15804        33.16820        -1.04876
C         48.83895        33.83059        -0.89807
C         49.98298        35.94008        -1.26748
C         48.79937        35.23996        -0.84053
C         49.89359        38.07079        -0.46946
C         48.76383        38.30527         0.25533
C         49.91296        40.43750         0.94707
C         48.69032        39.55792         1.00147
C         49.93539        41.48668         2.06995
C         48.58579        42.18541         2.21816
C         49.79636        44.23620         2.96581
C         48.52242        43.51001         2.89934
C         51.28020        29.57589        -1.72442
C         52.54022        31.92756        -1.79405
C         51.40208        31.01959        -1.95664
C         52.50631        33.16376        -1.71052
C         51.45097        34.00511        -1.11854
C         52.18168        36.57862        -1.24955
C         51.27750        35.46208        -1.31947
C         52.21406        37.80647        -1.03573
C         51.27855        38.50712        -0.04851
C         52.39103        40.68692         0.84551
C         51.22048        39.98555         0.26884
C         52.20845        41.89586         1.22532
C         51.16553        42.49817         1.90656
C         50.78981        43.76086         2.34630
O         39.25331        26.67648        -0.44604
O         43.26589        26.62471        -1.42873
O         40.84093        30.91532        -1.64865
O         34.84200        29.71852         3.38166
O         43.76214        35.68192        -1.93586
O         42.54948        44.16970         1.47452
O         38.98518        39.01386        -2.25488
O         42.77160        37.17598         1.20713
O         44.13206        41.98342        -0.80297
O         50.46225        31.49935        -2.93440
O         47.21950        37.09735         1.66339
O         41.53364        46.31883        -1.88747
O         33.93742        34.10080        -0.98714
O         45.33309        39.26897         2.45552
O         38.65098        28.26279         2.64026
O         51.00157        33.44182         0.13822
O         49.75847        37.27546        -1.60578
O         33.36902        40.10754         1.17060
O         38.52122        29.78851        -0.83813
O         35.75262        33.05800         2.16077
O         50.26231        40.83235        -0.41536
O         47.67719        43.57255         4.09859
O         44.80125        44.06040         2.99877
O         40.35100        40.75621         0.77341
O         35.92897        37.72879        -2.37275
H         36.67723        37.50529        -2.96601
O         51.51435        37.88314         1.22780
H         52.33835        38.26172         1.60424
O         48.54427        29.17838         1.02039
H         48.06575        28.72851         1.74658
O         36.54725        40.14943        -2.30762
H         36.00415        39.53397        -2.85402
O         35.72618        44.08733        -2.17748
H         35.94181        44.96965        -2.54148
O         41.42466        34.90272        -2.64275
H         42.35287        34.96995        -2.97695
O         50.17752        40.73462         3.26743
H         49.96459        41.29338         4.04449
O         38.79307        33.46262        -2.30221
H         39.60119        33.79979        -2.75619
O         38.49399        32.23242         1.87264
H         37.77158        32.66574         2.38732
O         37.78035        39.88607         1.09693
H         38.62550        40.21203         1.48966
O         42.01926        26.63378         1.95184
H         41.40812        26.10613         2.51175
O         32.95370        33.98530         2.47733
H         32.30944        33.53832         3.06525
O         31.53022        34.91648        -1.69955
H         31.56919        35.73435        -2.23616
O         41.97460        39.71048        -2.30135
H         42.42883        40.57589        -2.37806
O         36.07259        30.40884        -0.30636
H         36.81140        30.02104        -0.84430
O         48.16650        29.19194        -2.57303
H         48.72301        29.56683        -3.28824
O         35.49923        44.75824         1.82815
H         35.09637        43.91182         2.15956
O         41.19095        24.66777        -1.03061
H         41.15593        23.71080        -1.22876
O         36.15355        37.59252         1.25238
H         35.57045        37.21937         1.94594
O         45.19380        33.06073         1.52357
H         46.05685        32.75094         1.87247
O         45.97142        45.81692         0.00797
H         46.19038        46.72774        -0.28136
O         34.17928        42.50446         1.67358
H         34.00779        41.56281         1.93562
O         37.29386        30.44521         3.13910
H         37.67935        29.74157         3.70692
O         43.97290        41.49759         2.81498
H         44.36494        40.86208         3.45420
