         638
 CSIRO Nanostructure Databank - Neutral Graphene Oxide Data Set
C         23.01665        69.96272         0.82760
C         23.00359        71.38840         0.81825
C         21.80196        72.12250         0.92679
C         23.01916        74.21895         0.78535
C         21.81967        73.51909         0.91257
C         25.40147        65.66528         0.72624
C         25.38217        67.07025         0.62692
C         24.20933        67.81254         0.77334
C         25.46719        69.95191         0.59168
C         24.20441        69.23999         0.70615
C         25.47048        71.38395         0.61110
C         24.24087        72.09919         0.70120
C         25.49096        74.20929         0.50862
C         24.24590        73.52372         0.67648
C         27.84437        61.35892         0.51967
C         27.83026        62.77344         0.60091
C         26.62069        63.51570         0.67113
C         27.87144        65.64378         0.58305
C         26.60817        64.92158         0.63307
C         27.89841        67.04661         0.54082
C         26.63965        67.78068         0.17304
C         27.91932        69.94239         0.55084
C         26.67555        69.25076         0.49655
C         27.93045        71.36725         0.50268
C         26.69736        72.08946         0.48419
C         27.95627        74.27462         0.09570
C         26.68151        73.52186         0.39969
C         30.25476        57.08446        -0.26750
C         30.23185        58.46951        -0.00061
C         29.05369        59.21999         0.14231
C         30.28356        61.37855         0.31403
C         29.04611        60.63732         0.36343
C         30.29824        62.76120         0.38798
C         29.07771        63.49125         0.54574
C         30.33925        65.63022         0.65695
C         29.09298        64.90646         0.58274
C         30.31438        67.04413         0.85540
C         29.12304        67.75974         0.71210
C         30.37374        69.91323         0.84334
C         29.15630        69.21981         0.70063
C         30.39230        71.35345         0.71859
C         29.17818        72.07235         0.51392
C         30.42634        74.16686         0.45009
C         29.21856        73.49508         0.38717
C         32.73309        52.73853        -0.55448
C         32.72370        54.12528        -0.61248
C         31.45828        54.91813        -0.91596
C         32.69678        57.03449        -0.43195
C         31.47088        56.37018        -0.46038
C         32.77257        58.45418        -0.17190
C         31.53465        59.16578         0.34658
C         32.83004        61.33743         0.33089
C         31.52651        60.63805        -0.10626
C         32.84146        62.83224         0.14005
C         31.52892        63.54823        -0.00700
C         32.81298        65.66476         0.65430
C         31.56387        64.96178         0.50222
C         32.82036        67.00468         1.01588
C         31.55101        67.72632         1.35939
C         32.82560        69.87411         1.24340
C         31.62212        69.20911         1.07443
C         32.81940        71.35076         1.28249
C         31.60740        72.06152         0.84462
C         32.89688        74.15950         0.67471
C         31.65112        73.47403         0.69089
C         35.23394        48.46334        -0.49274
C         35.19725        49.85245        -0.43111
C         33.98849        50.59486        -0.54788
C         35.21036        52.73270        -0.38798
C         33.95903        51.99733        -0.45861
C         35.18353        54.16625        -0.51499
C         33.96136        54.83387        -0.59724
C         35.15936        57.01645        -0.35662
C         33.93121        56.30561        -0.92551
C         35.19570        58.48171        -0.84887
C         33.94251        59.15997        -0.34965
C         35.24863        61.39427        -0.62330
C         33.97180        60.63916        -0.37778
C         35.29180        62.90342        -0.42740
C         34.01697        63.52456         0.11190
C         35.28335        65.55347         0.72253
C         34.07299        64.95023         0.44445
C         35.34648        66.89776         1.32863
C         34.06414        67.69361         1.40394
C         35.31604        69.85261         1.35251
C         34.11024        69.18367         1.37134
C         35.43937        71.35906         1.56410
C         34.11890        72.10993         1.38128
C         35.34885        74.10527         0.54553
C         34.12836        73.49913         0.86054
C         37.72643        44.31691         0.68321
C         37.56955        45.68125         0.57140
C         36.38461        46.36530         0.07226
C         37.76914        48.40816        -0.49946
C         36.43429        47.70672        -0.26067
C         37.72698        49.89580        -0.24672
C         36.42890        50.59006         0.05363
C         37.68138        52.75559        -0.40418
C         36.43079        52.05877        -0.28344
C         37.69790        54.16736        -0.54143
C         36.45152        54.89335        -0.53444
C         37.73449        57.01767        -0.19983
C         36.46069        56.27410        -0.51484
C         37.72303        58.42342        -0.81535
C         36.46994        59.18504        -0.35188
C         37.74703        61.30627        -0.42342
C         36.53405        60.66684        -0.64112
C         37.80323        62.71114        -0.11105
C         36.54479        63.36983         0.26447
C         37.84268        65.52390         0.58953
C         36.56612        64.80504         0.70020
C         37.86789        66.95123         0.79774
C         36.66373        67.62056         1.34717
C         37.84254        69.84808         0.92443
C         36.62715        69.14045         1.37677
C         37.82225        71.26163         0.71550
C         36.61253        71.99364         0.84686
C         37.78538        74.03774         0.17216
C         36.58688        73.38239         0.53455
C         40.26869        39.94854         0.51468
C         40.21065        41.38441         0.77545
C         39.02624        42.08918         0.84494
C         40.24295        44.25108         0.58558
C         38.98527        43.57777         1.18030
C         40.51165        45.62502         1.12674
C         38.62377        46.63576         0.93017
C         40.18355        48.59368         0.60446
C         38.89411        47.80726         0.30819
C         40.20505        49.91531        -0.14758
C         38.91845        50.60288        -0.28845
C         40.10822        52.71424        -0.91667
C         38.90076        52.02821        -0.46942
C         40.17719        54.17383        -0.84241
C         38.94997        54.87802        -0.65370
C         40.19749        56.99044        -0.71795
C         38.98198        56.28199        -0.59395
C         40.21874        58.43330        -0.63028
C         39.00465        59.16440        -0.51861
C         40.24163        61.26469        -0.36428
C         39.00009        60.55557        -0.41861
C         40.25257        62.67645        -0.15854
C         39.01198        63.38605         0.05135
C         40.26694        65.51896         0.15681
C         39.01956        64.81448         0.29664
C         40.21235        67.02675        -0.06282
C         39.02547        67.68397         0.60110
C         40.27879        69.82411         0.59079
C         39.04620        69.12433         0.74272
C         40.27770        71.22397         0.37731
C         39.03781        71.93503         0.37869
C         40.24378        74.03329        -0.06919
C         39.02298        73.35256         0.14926
C         42.80765        35.78306        -0.42013
C         42.73506        37.13577         0.04827
C         41.54101        37.83731         0.06238
C         42.74241        39.89615         0.73858
C         41.44679        39.23117         0.43866
C         42.75814        41.38351         0.91825
C         41.48374        42.10641         0.83697
C         42.75398        44.20047         0.54040
C         41.52112        43.46928         0.68868
C         42.75422        45.60325         0.34168
C         41.54376        46.36982         0.61931
C         42.64465        48.43136        -0.01671
C         41.50557        47.81608         0.41287
C         42.70132        49.85262        -0.48764
C         41.38148        50.55738        -0.39269
C         42.69043        52.69386        -0.74855
C         41.45039        51.93770        -0.90527
C         42.68237        54.12075        -0.98296
C         41.40344        54.84618        -0.96813
C         42.63472        56.99848        -1.08572
C         41.41553        56.27524        -0.92404
C         42.64504        58.38514        -0.97600
C         41.44730        59.12992        -0.72968
C         42.66979        61.30599        -0.71684
C         41.46021        60.56447        -0.60522
C         42.70183        62.67979        -0.41132
C         41.47743        63.37546        -0.12922
C         42.72205        65.52437        -0.23435
C         41.44511        64.81357        -0.00085
C         42.73355        67.04522        -0.12603
C         41.51000        67.71032         0.23490
C         42.79326        69.82445         0.30706
C         41.57601        69.08724         0.82985
C         42.75433        71.22958         0.11745
C         41.51057        71.93521         0.17197
C         42.70304        74.05501        -0.23637
C         41.48611        73.35407        -0.04512
C         45.22819        33.11862        -1.31305
C         44.03287        33.75653        -1.07808
C         45.28781        35.64341         0.02117
C         43.99366        35.08482        -0.53816
C         45.29554        37.14335         0.10203
C         44.01377        37.78985         0.56484
C         45.26711        39.98874         0.44020
C         43.98276        39.25682         0.14748
C         45.24949        41.39675         0.59734
C         44.01699        42.10364         0.67206
C         45.22912        44.23793         0.53393
C         44.00138        43.50707         0.55791
C         45.20272        45.65030         0.43790
C         43.97166        46.29752         0.24990
C         44.98488        48.50161         0.81762
C         43.99192        47.75539        -0.08208
C         45.03291        49.98850         0.47376
C         43.89645        50.63628         0.05465
C         45.10111        52.76859        -0.33293
C         43.89441        52.05890        -0.29053
C         45.17116        54.02590        -1.15990
C         43.88115        54.81290        -1.11024
C         45.15341        57.01044        -1.26262
C         43.86962        56.26352        -1.56694
C         45.17128        58.37441        -1.21364
C         43.88755        59.12264        -1.29206
C         45.22072        61.36082        -1.24093
C         43.88520        60.62192        -1.22146
C         45.16855        62.71545        -0.56692
C         43.97855        63.36864        -0.35091
C         45.23386        65.56105        -0.21022
C         43.98852        64.79532         0.16132
C         45.23292        66.97879        -0.17181
C         44.03074        67.71103         0.02489
C         45.24210        69.83950        -0.10964
C         44.01818        69.12516         0.10676
C         45.21530        71.26846        -0.18570
C         43.97303        71.95230        -0.11738
C         45.16595        74.09181        -0.41840
C         43.94774        73.38499        -0.25886
C         46.47708        33.79406        -1.14161
C         47.72552        35.86410        -0.64864
C         46.52661        35.07205        -0.62702
C         47.71628        37.20000        -0.33288
C         46.46860        37.85471         0.04083
C         47.71381        39.99653         0.46269
C         46.49103        39.30226         0.31522
C         47.72581        41.41281         0.61190
C         46.48238        42.12425         0.62112
C         47.68422        44.28024         0.75885
C         46.46918        43.54010         0.63832
C         47.66041        45.70317         0.85013
C         46.41015        46.43738         0.66896
C         47.47638        48.60960         1.37877
C         46.33654        47.80571         0.80279
C         47.57008        50.01958         0.79356
C         46.29004        50.72614         0.73413
C         47.63192        52.81360        -0.07900
C         46.32206        52.22919         0.25273
C         47.60466        54.18080        -0.57652
C         46.41761        54.82811        -0.87987
C         47.65513        57.00696        -0.99046
C         46.44037        56.23515        -1.43524
C         47.64389        58.37762        -0.80539
C         46.40038        59.13490        -0.95012
C         47.58530        61.22602        -0.23716
C         46.38398        60.49899        -0.78994
C         47.63889        62.70516        -0.58125
C         46.43121        63.41947        -0.49004
C         47.66913        65.55143        -0.57577
C         46.43473        64.85086        -0.41761
C         47.67840        66.98380        -0.52119
C         46.46986        67.69632        -0.31300
C         47.69076        69.84532        -0.42343
C         46.45925        69.12706        -0.28304
C         47.67254        71.29538        -0.47241
C         46.43103        71.99189        -0.37957
C         47.64090        74.13583        -0.59178
C         46.41036        73.42526        -0.47229
C         48.95036        38.05412        -0.52936
C         50.22526        40.06675         0.36242
C         49.00245        39.20808         0.49817
C         50.21647        41.44834         0.61366
C         48.94053        42.14685         0.73365
C         50.12075        44.30507         1.06510
C         48.91977        43.56836         0.87534
C         50.09828        45.71326         1.13680
C         48.84615        46.40263         1.11553
C         50.08161        48.62746         1.29959
C         48.80052        47.85105         1.41287
C         50.02835        50.05532         0.93261
C         48.80317        50.72249         0.69540
C         50.10048        52.74735        -0.06593
C         48.83106        52.12454         0.20640
C         50.12196        54.03750        -0.88531
C         48.87404        54.88724        -0.75121
C         50.11665        57.06535        -1.28365
C         48.88940        56.24547        -0.94982
C         50.15186        58.31784        -0.38263
C         48.88129        59.12205        -0.55571
C         50.13115        61.29320        -0.19063
C         48.88004        60.47741        -0.42814
C         50.12298        62.59271        -1.02829
C         48.86079        63.40075        -0.75204
C         50.09601        65.56428        -1.09628
C         48.85984        64.80919        -0.80326
C         50.13279        67.01727        -0.86802
C         48.91144        67.70915        -0.64077
C         50.17048        69.85065        -0.60375
C         48.89478        69.12916        -0.53994
C         50.16155        71.33969        -0.70511
C         48.85636        72.02751        -0.67566
C         50.14791        74.12473        -0.63235
C         48.86241        73.45696        -0.68944
C         51.41026        42.17191         0.77990
C         52.58719        44.33264         0.81988
C         51.40908        43.56386         1.32409
C         52.58636        45.73603         0.85526
C         51.33808        46.46960         1.11259
C         52.56221        48.60523         0.99386
C         51.33928        47.86602         1.09384
C         52.57614        49.98929         0.82434
C         51.31825        50.82042         1.03396
C         52.58369        52.74658         0.11042
C         51.31883        52.11756         0.25961
C         52.61081        54.19356        -0.18257
C         51.35953        54.87880        -0.61665
C         52.70366        57.02073        -1.01389
C         51.42412        56.26980        -1.19964
C         52.65960        58.46587        -0.70138
C         51.42249        59.13332        -0.56224
C         52.62683        61.25045        -0.44928
C         51.41038        60.52492        -0.40988
C         52.59162        62.71260        -0.53142
C         51.41097        63.36510        -0.79496
C         52.64012        65.57942        -0.80688
C         51.42327        64.80884        -1.08033
C         52.62440        66.99264        -0.86670
C         51.37803        67.70533        -0.92078
C         52.60946        69.85249        -1.01777
C         51.41073        69.12774        -0.91986
C         52.59908        71.24349        -1.65729
C         51.25905        72.07317        -1.46433
C         52.60303        74.07130        -0.58762
C         51.34960        73.46213        -0.84917
C         53.78811        46.44689         0.75801
C         55.07705        48.58025         0.87931
C         53.83912        47.84896         1.27005
C         55.07295        49.95772         0.70247
C         53.81093        50.68334         0.64829
C         55.08323        52.79123         0.36044
C         53.81492        52.07850         0.37795
C         55.13933        54.16816         0.13686
C         53.93989        54.83407        -0.40204
C         55.16879        57.05972        -0.27166
C         53.99172        56.29057        -0.72937
C         55.11092        58.43351        -0.19933
C         53.87462        59.15496        -0.47266
C         55.15114        61.31437        -0.54366
C         53.85208        60.56567        -0.42042
C         55.02777        62.76474        -0.15174
C         53.83407        63.44544        -0.35772
C         54.99688        65.63378        -0.19728
C         53.82274        64.89649        -0.43986
C         55.04004        67.04279        -0.34762
C         53.83472        67.73502        -0.69618
C         55.07733        69.87353        -0.74133
C         53.83745        69.14990        -0.85919
C         55.09660        71.27888        -0.89318
C         53.93276        72.07677        -1.47135
C         55.04106        74.08853        -0.51165
C         53.82105        73.41890        -0.76210
C         56.30105        50.67434         0.64231
C         57.54841        52.79483         0.58324
C         56.32914        52.07869         0.55367
C         57.59178        54.20254         0.45006
C         56.35929        54.90934         0.19932
C         57.58220        57.04532         0.28302
C         56.36999        56.32372         0.07509
C         57.57095        58.46804         0.37716
C         56.24092        59.17747         0.47699
C         57.47194        61.33724         0.36166
C         56.33149        60.63062         0.10163
C         57.43136        62.78630         0.33015
C         56.23050        63.46212         0.18870
C         57.36388        65.70894         0.77254
C         56.14808        64.92768         0.38530
C         57.45252        67.11374         0.30821
C         56.26025        67.76578        -0.15677
C         57.50692        69.89301        -0.32133
C         56.27730        69.17793        -0.39345
C         57.51528        71.27390        -0.48322
C         56.29703        71.98050        -0.69080
C         57.51049        74.13031        -0.46809
C         56.28902        73.43887        -0.61562
C         58.80497        54.92921         0.51991
C         60.01547        57.09746         0.63078
C         58.81803        56.33728         0.45717
C         59.98656        58.47950         0.71605
C         58.74612        59.17604         0.61587
C         60.00672        61.35994         0.64807
C         58.69367        60.65195         0.96305
C         59.99015        62.84057         0.48950
C         58.69141        63.56034         0.43576
C         59.90535        65.71666         0.92301
C         58.63622        64.92751         1.10043
C         59.86906        67.09713         0.80311
C         58.68072        67.77053         0.36084
C         59.98915        69.94378         0.19397
C         58.81022        69.12785        -0.29032
C         60.01014        71.31821        -0.06700
C         58.82422        71.98792        -0.71849
C         59.95809        74.17330        -0.27967
C         58.75997        73.47621        -0.45262
C         61.26661        59.23446         1.02404
C         62.48977        61.46414         0.40062
C         61.19555        60.71097         0.68666
C         62.46758        62.91535         0.86352
C         61.19740        63.60754         0.89361
C         62.37046        65.74719         1.25736
C         61.14260        64.98983         1.06489
C         62.35387        67.11178         1.23859
C         61.06055        67.89945         1.26536
C         62.34184        70.02103         0.83124
C         61.15065        69.29757         0.69190
C         62.39211        71.40527         0.50284
C         61.19399        72.06910         0.11957
C         62.42480        74.18607        -0.03995
C         61.20103        73.49963        -0.09103
C         63.62669        63.57113         1.14708
C         64.88126        65.76928         1.31215
C         63.62858        64.99407         1.64523
C         64.89265        67.13885         1.33644
C         63.60361        67.86653         1.48119
C         64.86408        70.06393         1.06808
C         63.58598        69.35835         1.28391
C         64.85409        71.42861         0.81955
C         63.62994        72.12550         0.55656
C         64.89626        74.19168         0.05379
C         63.64321        73.51688         0.21942
C         66.09404        67.91682         1.18762
C         67.33188        70.01042         0.83871
C         66.10256        69.30378         1.09181
C         67.36934        71.38275         0.65847
C         66.13720        72.20959         0.95200
C         67.35198        74.15614        -0.06482
C         66.11297        73.54814         0.24968
C         68.56632        72.07148         0.31859
C         68.55013        73.43105         0.00342
O         56.33857        65.42741         1.78730
O         39.53372        46.21821         1.93209
O         52.23651        56.58084        -2.35952
O         36.88888        68.33943         2.58808
O         54.24370        55.28821        -1.76753
O         42.86553        40.43443         2.06954
O         63.50712        68.75675         2.65639
O         50.75235        65.14460        -2.35424
O         46.17921        51.84802         1.66043
O         49.52735        48.23737         2.63876
O         33.29540        71.93055         2.57984
O         42.72561        66.27778        -1.45083
O         40.71185        52.16434        -2.14001
O         34.64125        67.04337         2.59788
O         34.30377        61.11784        -1.73019
O         50.47086        70.73967         0.58167
O         43.68732        59.93647        -2.51325
O         36.49351        63.68144         1.68584
O         51.75006        54.93297         0.78961
O         59.46729        63.39708        -0.80346
O         33.01093        61.15750         1.75577
H         33.72021        61.75898         2.06505
O         33.88737        56.35015        -2.38781
H         33.01437        55.96050        -2.65098
O         55.44277        61.33300        -1.99118
H         56.28055        61.82820        -2.11665
O         51.54438        43.46217         2.80599
H         51.52148        44.37634         3.16321
O         50.67305        72.27466        -2.77163
H         51.32643        72.74198        -3.33193
O         45.53447        61.68380        -2.62836
H         45.09162        60.99275        -3.17864
O         40.14657        48.96652         2.00977
H         40.08683        48.13081         2.52540
O         31.58390        59.12230         1.79498
H         31.80908        58.20742         2.06184
O         46.56236        56.05345        -2.90596
H         46.36615        55.10252        -3.09894
O         55.92293        59.19003         1.92735
H         55.86720        58.25467         2.22026
O         58.51411        60.71099         2.41084
H         57.63793        60.29975         2.60088
O         43.93649        64.72681         1.62243
H         44.73014        64.23980         1.92946
O         48.93233        38.59221        -1.86037
H         48.08494        39.06735        -1.98635
O         31.39305        63.64538        -1.49544
H         32.12437        64.21696        -1.81678
O         50.10107        62.21919        -2.42375
H         50.18049        63.04857        -2.94659
O         27.97663        75.54372         0.75982
H         27.99866        75.38287         1.72521
O         53.90441        47.74379         2.76479
H         53.63007        48.61471         3.12665
O         39.95437        44.42210        -0.83947
H         40.73617        44.83393        -1.26454
O         35.79885        71.49055         2.97148
H         34.95386        71.42943         3.47678
O         36.40175        59.18880         1.10583
H         37.30121        59.36713         1.45640
O         39.97893        67.15892        -1.52065
H         40.79855        66.82494        -1.95867
O         43.82676        39.26128        -1.30295
H         43.94133        40.18044        -1.62280
O         44.47839        48.40301         2.16752
H         45.20658        48.69302         2.76918
O         52.56714        70.85077        -3.07145
H         53.05856        70.00751        -3.16867
O         50.21551        53.63940        -2.28505
H         49.35031        53.26623        -2.55463
O         62.37278        58.58300         0.39942
H         62.41050        58.85141        -0.54016
O         49.09675        38.54443         1.80020
H         49.11935        39.24081         2.49013
O         51.41870        51.22933         2.45529
H         50.67335        51.84226         2.63460
O         36.31828        50.54830         1.53331
H         35.48342        51.00616         1.77079
O         38.06739        48.22931        -1.92046
H         37.34897        48.65248        -2.43568
O         50.11703        61.73115         1.21304
H         50.58764        61.05861         1.74904
O         37.76525        58.26549        -2.24806
H         36.85549        58.39853        -2.61915
O         66.22883        72.54115         2.38638
H         67.06400        73.04019         2.51137
O         35.19352        58.58212        -2.28761
H         34.51234        57.95416        -2.64111
O         35.40755        63.47786        -1.76716
H         34.88295        62.89420        -2.36391
O         44.00545        37.70993         2.00668
H         44.33552        36.81468         2.24976
O         50.16582        57.83582         0.99127
H         49.83262        58.54685         1.57670
O         41.73319        68.95157         2.29674
H         41.62130        69.84006         2.69624
O         58.62638        64.63524         2.52648
H         57.70805        64.80297         2.84871
O         49.92872        57.52472        -2.63246
H         50.78246        57.38884        -3.10997
O         31.50619        60.62772        -1.55186
H         31.45187        61.56433        -1.85580
O         47.38394        61.23186         1.23228
H         48.22421        61.59135         1.61086
O         44.54550        47.83901        -1.44103
H         44.09623        47.16105        -1.98865
O         59.06065        71.82384        -2.17133
H         58.34146        72.30390        -2.63661
O         42.93694        49.84558        -1.93747
H         43.73940        49.28498        -2.08641
O         43.77287        56.22275        -3.03185
H         44.69497        56.28498        -3.38212
O         45.31486        35.18926         1.43454
H         45.38148        34.20989         1.41791
O         39.02184        43.65222         2.62383
H         38.99287        44.60403         2.87411
O         63.63054        60.80080         0.93421
H         63.51502        60.70504         1.90101
O         34.90754        57.01784         1.07738
H         35.57123        57.62967         1.48728
O         60.80181        68.12797         2.69800
H         61.64043        68.49813         3.07175
O         31.44430        67.64333         2.83356
H         30.65025        68.15459         3.09849
O         63.60022        64.89548         3.11430
H         63.51238        65.80718         3.46707
O         45.33549        53.58840        -2.59045
H         44.45316        53.28237        -2.89857
O         54.39375        72.47415        -2.79915
H         53.82116        72.00279        -3.45402
O         26.59162        67.73138        -1.30548
H         26.53331        66.78513        -1.55882
O         31.35710        54.96275        -2.36517
H         31.37059        54.04104        -2.69809
O         47.08716        48.84974         2.77572
H         47.93708        48.92518         3.27791
O         59.12144        68.85895        -1.70579
H         59.19007        69.74185        -2.14479
O         37.81634        57.14384         1.26270
H         37.82292        56.23448         1.63114
H         23.01745        75.31819         0.76549
H         25.49609        75.30801         0.45300
H         27.95147        74.50479        -1.00894
H         30.44076        75.26035         0.33276
H         32.90563        75.22556         0.40199
H         35.35304        75.15283         0.20920
H         37.76357        75.11743        -0.03604
H         40.22983        75.11973        -0.24158
H         42.67572        75.14574        -0.37742
H         45.13890        75.18864        -0.50163
H         47.62415        75.23583        -0.58551
H         50.16866        75.18011        -0.31848
H         52.60740        75.09411        -0.17780
H         55.01397        75.14924        -0.21694
H         57.48675        75.22224        -0.32790
H         59.94036        75.27320        -0.23323
H         62.44432        75.26684        -0.24514
H         64.88694        75.22195        -0.33515
H         67.36360        75.19218        -0.43418
H         22.06364        69.42240         0.93316
H         20.84741        71.58502         1.02115
H         20.87428        74.07351         0.99710
H         24.45889        65.12884         0.91586
H         23.26035        67.29078         0.97299
H         26.88706        60.81546         0.53142
H         25.66409        62.97395         0.72416
H         29.30170        56.54828        -0.40073
H         28.08146        58.70839         0.05300
H         31.78503        52.18021        -0.60932
H         30.55477        54.38446        -0.50792
H         34.28506        47.91143        -0.59832
H         33.05223        50.05237        -0.75187
H         36.88041        43.68585         0.36240
H         35.41665        45.83944         0.07986
H         39.31450        39.42861         0.33450
H         38.07140        41.54376         0.77617
H         41.87295        35.29698        -0.74620
H         40.61905        37.32480        -0.25775
H         45.23109        32.10605        -1.74031
H         43.08518        33.27184        -1.35630
H         47.39484        33.31729        -1.51642
H         48.65429        35.39435        -1.00852
H         49.87255        37.43036        -0.43796
H         51.19479        39.55225         0.27395
H         52.37483        41.65263         0.67488
H         53.53535        43.80233         0.64199
H         54.72500        45.91592         0.53354
H         56.03718        48.04712         0.95210
H         57.24552        50.11705         0.72883
H         58.48819        52.23989         0.72225
H         59.74931        54.38635         0.67448
H         60.97557        56.57263         0.74337
H         61.44203        59.15774         2.13643
H         62.62561        61.47256        -0.71985
H         64.58158        63.02414         1.11095
H         65.82936        65.21860         1.21002
H         67.04994        67.37551         1.12066
H         68.25673        69.42340         0.72538
H         69.50695        71.50571         0.24776
H         69.49151        73.92916        -0.26871
