         576
 CSIRO Nanostructure Databank - Neutral Graphene Oxide Data Set
C          6.05218        19.30377         1.20924
C          5.98878        20.63572         0.88581
C          4.75143        21.38764         0.91686
C          5.84501        23.36912        -0.06230
C          4.69861        22.69535         0.53674
C          5.77313        24.73982        -0.46353
C          8.67152        15.04498         1.78379
C          8.72167        16.54876         1.78494
C          7.37958        17.24829         1.65038
C          8.53433        19.27449         0.83391
C          7.29382        18.54589         1.23961
C          8.34843        20.54879         0.07999
C          7.25184        21.43341         0.61829
C          8.11601        23.23998        -1.08297
C          7.03618        22.67205        -0.20008
C          8.17612        24.74160        -1.00670
C          6.93999        25.44574        -0.81018
C          8.13764        27.58844        -0.98951
C          6.96093        26.87622        -0.79248
C          8.19510        28.96702        -0.68404
C         11.14293        10.85843         2.13804
C         11.08253        12.19150         1.68967
C          9.87708        12.92003         1.78955
C         11.03728        14.96448         1.02369
C          9.82192        14.31154         1.51714
C         11.00156        16.32041         0.66696
C          9.66043        17.00928         0.65192
C         10.90572        19.08247        -0.17804
C          9.78686        18.51214         0.60916
C         10.81330        20.45659        -0.65249
C          9.49478        21.13228        -0.69459
C         10.61962        23.26667        -1.31564
C          9.46646        22.57788        -0.97704
C         10.58565        24.69339        -1.44843
C          9.37766        25.40752        -1.29009
C         10.65753        27.58304        -1.27589
C          9.34635        26.89138        -1.59423
C         10.63199        28.92912        -0.92057
C          9.41901        29.65717        -0.64029
C         10.65092        31.77464        -0.23251
C          9.47691        31.02145        -0.19431
C         10.75594        33.08256         0.29325
C         13.82665         6.97171         3.70891
C         13.70506         8.08310         2.69451
C         12.42790         8.86516         2.73999
C         13.55535        10.78138         1.62455
C         12.36893        10.14025         2.17609
C         13.46218        12.06662         1.05099
C         12.27349        12.82401         1.16195
C         13.40905        14.91001         0.39631
C         12.24094        14.22610         0.83837
C         13.38489        16.28446         0.08886
C         12.14435        16.98191         0.16545
C         13.21698        18.94833        -1.08736
C         12.05912        18.34664        -0.31668
C         13.25524        20.45152        -0.88093
C         11.94409        21.13640        -1.00417
C         13.17434        23.22168        -1.91553
C         11.89188        22.51435        -1.53755
C         13.09615        24.71610        -2.16612
C         11.81092        25.43041        -1.84088
C         13.14767        27.45746        -1.25320
C         11.88221        26.86378        -1.46644
C         13.16195        28.96525        -1.16073
C         11.90665        29.63981        -0.56664
C         13.14222        31.81914        -0.70874
C         11.80795        31.13453        -0.97094
C         13.14760        33.24001        -0.25888
C         11.95362        33.84505         0.30881
C         13.16417        35.71214         1.59445
C         12.02245        34.98570         1.17136
C         13.16379        36.45769         2.83582
C         16.28466         7.08312         3.64990
C         15.03105         6.47875         4.07717
C         16.22047         8.47029         3.14126
C         14.88828         9.02769         2.75058
C         16.03176        10.82033         1.45337
C         14.85143        10.20673         1.85569
C         15.97982        11.88034         0.38012
C         14.65000        12.65007         0.38244
C         15.92646        14.85031         0.00263
C         14.62233        14.12278         0.08668
C         15.90415        16.33276        -0.20003
C         14.58990        16.99974        -0.33368
C         15.76310        19.00569        -1.16922
C         14.54343        18.28416        -0.81525
C         15.75904        20.38096        -1.33842
C         14.52951        21.18828        -1.11732
C         15.66767        23.29114        -1.75013
C         14.49840        22.60954        -1.57361
C         15.68574        24.70569        -2.22342
C         14.39293        25.54610        -2.33127
C         15.63712        27.56392        -1.42199
C         14.39636        26.82925        -1.49931
C         15.68653        28.88499        -0.97579
C         14.40473        29.49136        -0.44733
C         15.61795        31.64903        -0.01182
C         14.39199        31.00633        -0.55155
C         15.62581        33.16075        -0.06693
C         14.36270        33.87592        -0.32750
C         15.61967        36.11912         1.48459
C         14.40810        35.72208         0.90114
C         15.60985        36.74049         2.78605
C         14.31469        36.95917         3.38769
C         18.72196         7.09856         3.33216
C         17.49933         6.46442         3.76812
C         18.65229         8.41064         2.68297
C         17.42054         9.08863         2.56362
C         18.51630        10.92691         1.34905
C         17.32447        10.28826         1.80984
C         18.45261        12.20700         0.64232
C         17.22852        12.75339         0.32481
C         18.40041        14.89206        -0.41628
C         17.13827        14.05369        -0.44732
C         18.34853        16.25491        -0.76983
C         17.09887        16.98036        -0.79104
C         18.19203        18.92419        -1.95655
C         17.01620        18.27873        -1.25355
C         18.28535        20.41435        -1.66752
C         17.04118        21.11164        -1.35019
C         18.25483        23.31253        -1.85300
C         16.98665        22.63582        -1.47042
C         18.25309        24.73082        -1.88819
C         16.98409        25.46155        -2.11569
C         18.15907        27.54898        -1.28145
C         16.93473        26.98959        -2.00283
C         18.17505        28.99831        -0.96883
C         16.91980        29.62972        -0.74105
C         18.09561        31.65025         0.22568
C         16.87897        30.93692        -0.20461
C         18.09457        33.14362         0.23361
C         16.93617        33.80310        -0.09751
C         18.06682        35.82650         1.64348
C         16.88515        35.75562         0.92441
C         18.08276        36.72212         2.78715
C         16.82589        37.11362         3.36201
C         21.17477         7.07097         3.09823
C         19.94332         6.48381         3.53914
C         21.10745         8.24746         2.14667
C         19.81406         9.02328         2.18328
C         20.99631        10.94032         1.12072
C         19.76154        10.30930         1.59354
C         20.92533        12.21720         0.41829
C         19.69317        12.87372         0.24515
C         20.84878        14.93664        -0.58567
C         19.64518        14.22497        -0.27486
C         20.82835        16.28255        -0.96377
C         19.56390        16.97897        -1.09024
C         20.72580        18.92061        -2.21122
C         19.50229        18.25967        -1.63252
C         20.69177        20.43829        -2.18163
C         19.48736        21.13968        -1.91868
C         20.64208        23.36323        -2.58518
C         19.44998        22.59333        -2.00955
C         20.68731        24.79518        -2.09265
C         19.49383        25.44595        -1.88226
C         20.69835        27.71398        -1.66063
C         19.47114        26.84883        -1.39965
C         20.64519        29.01002        -0.89222
C         19.42354        29.61276        -0.62234
C         20.62062        31.78964        -0.09195
C         19.41080        30.94576         0.04098
C         20.55158        33.21324         0.25194
C         19.32332        33.86873         0.51225
C         20.48646        35.70430         1.67178
C         19.29069        35.15318         1.21811
C         20.54130        36.81428         2.60654
C         19.31051        37.21824         3.23041
C         23.64025         7.15540         2.94553
C         22.40283         6.53234         3.39399
C         23.58568         8.43064         2.37686
C         22.28309         9.18831         2.35179
C         23.42385        10.78485         0.61252
C         22.20998        10.34228         1.37433
C         23.37842        12.23826         0.22598
C         22.15544        12.85167         0.01710
C         23.37566        14.94979        -0.67259
C         22.11037        14.13332        -0.77899
C         23.31910        16.35901        -1.00442
C         22.06876        17.00764        -1.22513
C         23.21788        19.07385        -1.92893
C         22.02890        18.34437        -1.69709
C         23.18984        20.29540        -2.85516
C         21.85253        21.15282        -2.84307
C         23.18689        23.36937        -2.92790
C         21.97703        22.61101        -2.30797
C         23.20789        24.88348        -2.56887
C         21.98136        25.50791        -1.96609
C         23.27437        27.78891        -1.71936
C         22.02393        26.96007        -1.55545
C         23.10502        29.20510        -1.39490
C         21.94813        29.66985        -0.50508
C         22.94561        32.11621        -0.76939
C         21.79257        31.19502        -0.45874
C         23.00909        33.34902         0.07264
C         21.77822        33.93321         0.39788
C         22.98880        35.99538         1.25115
C         21.72005        35.26885         1.00442
C         23.07480        36.81139         2.52663
C         21.75700        37.41261         2.92893
C         26.07821         6.96522         2.53329
C         24.87729         6.44576         3.03647
C         26.12664         8.37356         2.09210
C         24.80365         9.14639         2.02675
C         25.90559        10.92588         0.71624
C         24.74109        10.33474         1.17524
C         25.84090        12.25605         0.15447
C         24.62095        12.91127        -0.05308
C         25.86425        15.07545        -0.42152
C         24.57222        14.30612        -0.44296
C         25.80142        16.40901        -1.09531
C         24.52680        17.09014        -1.20349
C         25.70963        19.17798        -1.76919
C         24.45118        18.42850        -1.66531
C         25.77497        20.50730        -2.42612
C         24.48630        21.18201        -2.83367
C         25.69990        23.33495        -2.45953
C         24.50849        22.65859        -2.65768
C         25.71525        24.79893        -2.12499
C         24.48880        25.65608        -2.39010
C         25.82296        27.74562        -2.10528
C         24.47241        27.11535        -1.96852
C         26.03800        29.19086        -1.84538
C         24.09310        30.17439        -1.60501
C         25.48836        31.86770        -0.28505
C         24.22828        31.37788        -0.87918
C         25.50960        33.28952         0.16873
C         24.27576        33.96222         0.31697
C         25.54064        36.01773         1.17857
C         24.26676        35.37219         0.76379
C         25.48327        37.24994         2.02233
C         24.27628        37.71721         2.52068
C         28.42573         6.73786         1.79797
C         27.28266         6.23522         2.47257
C         28.31656         7.98414         1.04424
C         27.21768         8.81582         1.20956
C         28.21736        10.65180        -0.07624
C         27.15227        10.15936         0.65743
C         28.32189        12.08101        -0.43038
C         27.10035        12.92305        -0.20714
C         28.23682        14.82083        -1.33590
C         27.06105        14.25124        -0.82172
C         28.23419        16.23224        -1.63483
C         27.00423        16.98081        -1.48754
C         28.22794        19.10491        -2.13574
C         27.02427        18.43146        -1.68307
C         28.25665        20.50077        -2.15870
C         27.01787        21.27778        -2.19924
C         28.27751        23.40667        -2.61843
C         26.98822        22.64464        -2.34414
C         28.32161        24.79378        -2.03619
C         27.04640        25.46849        -1.82858
C         28.30502        27.71463        -1.56724
C         27.07106        26.95038        -1.97741
C         28.11787        28.88467        -0.59390
C         26.95507        29.75504        -1.02079
C         28.05754        31.79040         0.08136
C         26.81147        31.08854        -0.32976
C         27.99667        33.13648         0.55800
C         26.75477        33.88572         0.58792
C         27.96703        35.85498         1.50983
C         26.77994        35.21674         1.11807
C         27.94974        37.21308         2.08290
C         26.71521        37.89339         2.27748
C         30.82057         6.41666         1.08674
C         29.65128         6.05777         1.86682
C         30.76894         7.74471         0.24465
C         29.42174         8.40710         0.16614
C         30.63746        10.48211        -0.69631
C         29.36200         9.80103        -0.40296
C         30.57321        11.72762        -1.49981
C         29.25860        12.51140        -1.55659
C         30.61781        14.65572        -1.96859
C         29.42427        14.03175        -1.58874
C         30.62356        16.07927        -2.15179
C         29.43510        16.84625        -2.05154
C         30.67028        19.03019        -2.03940
C         29.44148        18.30404        -2.51263
C         30.70712        20.41400        -1.92475
C         29.51527        21.16994        -2.18681
C         30.84454        23.31565        -1.81057
C         29.57290        22.61084        -2.35687
C         30.62866        24.70770        -1.22275
C         29.66095        25.53842        -2.11266
C         30.82079        27.61942        -0.99378
C         29.60902        27.00040        -1.65652
C         30.67537        29.01546        -0.44071
C         29.36949        29.72149        -0.39942
C         30.47682        31.62527         0.73954
C         29.28755        31.03010         0.06504
C         30.42903        33.04262         1.22136
C         29.19420        33.82158         0.98322
C         30.48245        35.93457         1.58250
C         29.19627        35.15729         1.38312
C         30.36412        36.95770         2.71630
C         29.12073        37.77949         2.56407
C         33.24593         6.50168         0.85646
C         32.16162         5.95510         1.45893
C         33.23818         7.77321         0.14231
C         31.99940         8.51830         0.06838
C         33.02123        10.75630        -0.55505
C         31.85612         9.90961        -0.35086
C         33.09848        11.84588        -1.37656
C         31.84567        12.37270        -1.97671
C         33.20300        14.52379        -2.45734
C         31.79331        13.81684        -2.56582
C         33.23057        16.01840        -2.21531
C         31.92242        16.78395        -2.31681
C         33.06444        18.86207        -1.33118
C         31.92091        18.26424        -2.06136
C         33.05406        20.32839        -1.17204
C         31.93922        21.08304        -1.48711
C         32.97008        23.15247        -0.52849
C         31.93384        22.51314        -1.25017
C         32.99090        24.54042        -0.31283
C         31.91421        25.37226        -0.76913
C         33.11618        27.37412         0.00046
C         31.92951        26.74705        -0.53489
C         33.06200        28.79191         0.44040
C         31.77521        29.54009         0.42219
C         32.93581        31.57593         1.27944
C         31.79236        30.97637         0.70565
C         32.90401        32.96933         1.66004
C         31.71120        33.72362         1.52885
C         32.90341        35.73449         2.25280
C         31.71480        35.09328         1.79843
C         32.83255        37.15206         2.61685
C         31.64592        37.75540         2.82163
C         34.48426         8.13479        -0.41901
C         35.75093        10.10331        -1.51487
C         34.85722         9.48306        -0.67998
C         35.69796        11.57858        -1.55416
C         34.40979        12.23724        -2.06367
C         35.71791        14.50813        -1.70749
C         34.49580        13.75457        -2.19847
C         35.59459        15.94111        -1.33346
C         34.41047        16.63798        -1.56253
C         35.56097        18.78791        -0.82039
C         34.26948        18.02575        -1.03948
C         35.32431        20.11665        -0.06050
C         34.31463        21.05103        -0.77008
C         35.26450        22.91987         0.64116
C         33.97584        22.23802         0.15774
C         35.29554        24.39384         0.88484
C         33.98744        25.16325         0.66779
C         35.50374        27.28400         0.61876
C         34.19362        26.62854         0.40956
C         35.55446        28.74516         0.94953
C         34.29924        29.55053         0.75509
C         35.34839        31.45645         1.95005
C         34.16437        30.86301         1.38327
C         35.29401        32.84683         2.26936
C         34.11133        33.60371         2.10287
C         34.07591        34.99800         2.40151
C         36.81196        12.29713        -1.23160
C         37.88175        14.38307        -0.49637
C         36.83962        13.73630        -1.11833
C         37.85546        15.80604        -0.27135
C         36.72981        16.53465        -0.66948
C         37.96284        18.64141         0.02144
C         36.59861        17.91275        -0.06998
C         37.74324        19.97113         0.70804
C         36.65206        20.82322         0.14384
C         37.73591        22.85632         1.27302
C         36.60610        22.25280         0.51861
C         37.74719        24.30129         1.36332
C         36.63636        25.04253         0.99735
C         38.06909        27.23994         1.18074
C         36.76217        26.50298         0.80688
C         37.85080        28.58821         1.84968
C         36.48911        29.17559         2.07203
C         36.49064        30.67322         2.21736
C         38.94621        16.43665         0.46218
C         40.10535        18.48267         1.35033
C         39.01701        17.79392         0.69319
C         40.08525        19.83601         1.65324
C         38.83672        20.61848         1.47975
C         40.01958        22.73811         2.16187
C         38.83098        22.09754         1.63519
C         40.05523        24.11743         2.28674
C         38.96210        24.96143         1.85332
C         39.03276        26.33384         1.92544
C         41.20058        20.55133         2.22114
C         41.16133        21.89793         2.47169
O         25.11811        29.97292        -2.53008
O         30.15183        31.94503         2.16458
O         31.12673        11.43897        -2.83929
O         16.94352        35.18003        -0.36458
O         18.75446        26.85947        -0.11628
O         22.17405        36.44190         0.15042
O         25.76861         9.31747         3.14668
O         25.40635        20.63930        -3.82763
O         28.24669        12.90066         0.77109
O         36.35427        26.92563        -0.55327
O         25.90278        30.94147         0.83471
O         30.64946        23.08659        -3.22638
O         31.43725        13.73129        -3.89699
O          9.58164        19.26799         1.86766
O         17.09412        22.01807        -0.16278
O         24.98005        36.26047        -0.17139
O         35.42337        29.55924        -0.22693
O         34.16101        10.39618         0.15697
O         23.16959        19.55333        -4.06510
O         18.79013        31.00351         1.36554
O         16.15460        15.72026         1.13583
O         14.06020        31.59360        -1.84647
O         12.41041        22.49712        -2.92898
O         35.12669        23.41990         2.00739
O         15.42787         9.33630         4.06081
O         35.53319        14.17115        -3.12444
O         31.26296        28.78374        -1.78137
O         32.09433        17.73670        -3.43492
O         33.24782        18.16050         0.00731
O         30.68884         6.43542        -0.37575
O         26.16633        24.98368        -0.73388
O         16.49207        24.93541        -3.41481
O          8.40003        20.36827        -1.35286
O         14.42103        35.27535        -0.42672
O         37.69042        19.92795         2.15710
O         26.58167        27.32426        -3.30643
O         29.15755        27.90751        -2.72173
O         22.15472        25.93220        -0.53776
O         37.03113        21.82267        -0.83222
O         15.47782        32.38161         1.23526
O         33.46122        15.43909        -3.54249
O         26.44697        19.16899        -0.51144
O         32.14972        28.77558         1.62232
O         12.17420        25.07272        -3.24097
O         14.00204        20.96365         0.26340
O         14.36577        13.14784        -0.97736
O         29.03650         8.63360        -1.23583
O         23.83426        25.57753        -3.69995
O         22.16375        22.50978        -0.88673
H         22.09353        23.40030        -0.47918
O         23.01548        23.27860        -4.35369
H         23.56594        23.98626        -4.76179
O         16.90528        13.72089        -1.85028
H         17.67471        13.20196        -2.16724
O         28.23271        23.66720        -4.05666
H         29.12690        24.01713        -4.29915
O         11.95832        29.66396         0.87776
H         12.15492        28.76103         1.20405
O         28.58348        12.14879        -2.77949
H         29.27999        12.10396        -3.47807
O         20.62408        28.04371        -3.08337
H         19.75845        28.46799        -3.26734
O         23.37102        35.77305         3.55003
H         23.42322        36.22056         4.42137
O         13.78476         7.45482         1.36595
H         12.96678         6.93200         1.23081
O         36.01190        19.10675        -2.15415
H         36.98300        19.31304        -2.11800
O         20.37445        23.52559        -3.99750
H         20.74743        22.74024        -4.47653
O         23.34146        10.05480        -0.67982
H         22.55195        10.39135        -1.15726
O         12.93874        18.77015        -2.50871
H         13.02213        17.81787        -2.72429
O         29.86923        24.51010         0.00740
H         30.48168        24.21556         0.71581
O         22.28804        29.25700         0.85546
H         21.48721        29.34995         1.41443
O         22.13742         9.76468         3.68509
H         22.97871        10.20961         3.92159
O         17.03589        27.52047        -3.34785
H         16.45406        26.95367        -3.91148
O         29.47886        18.27214        -3.97398
H         30.38701        17.97197        -4.23054
O         27.83647        28.26421         0.68780
H         27.51807        28.95939         1.30411
O          7.73876        21.89956         1.92174
H          7.00706        22.38713         2.35595
O         26.11425        15.36109         1.01108
H         26.91765        15.92195         1.06877
O          8.99989        16.62001        -0.58539
H          9.55290        16.91349        -1.33974
O         20.71185        18.58444        -3.64793
H         21.63600        18.83971        -3.99602
O         35.88920        28.56268         3.28168
H         36.44824        28.80649         4.04923
O         21.22872         7.70954         0.79989
H         20.49808         7.07170         0.66065
O         34.84973        19.84504         1.27030
H         34.02106        19.30591         1.18251
O         22.04431        13.68722        -2.18867
H         22.08934        14.48868        -2.75375
O         33.26531        25.14506         1.94484
H         33.60565        24.37299         2.45664
O         17.95049        18.77146        -3.39673
H         18.83483        18.76728        -3.84274
O         30.68413        36.70814         0.36595
H         30.76086        36.08724        -0.38783
O         21.43221        21.19680        -4.22315
H         22.11670        20.64357        -4.71971
O          9.17288        26.98292        -3.04532
H          9.24158        27.92930        -3.29305
O         38.76624        27.54245        -0.06337
H         38.06626        27.66183        -0.75069
O          7.66179        22.96641        -2.47220
H          8.31331        23.38134        -3.07854
O         36.15266        17.63682         1.26932
H         35.99552        18.49292         1.74047
O         38.48171        18.94147        -1.30758
H         38.80288        18.10357        -1.70435
O         30.21136        36.19139         3.94863
H         30.15534        36.82161         4.69651
O         30.14508        25.55545        -3.46740
H         29.82093        26.39276        -3.87479
O         34.85834        21.59604        -1.98265
H         35.26683        20.85138        -2.48740
O         14.39945        26.07819        -3.68157
H         13.46906        26.00378        -4.01510
O         14.36452        29.11737         0.95270
H         15.17516        29.46590         1.38208
O         33.25252        21.75298         1.31139
H         33.73275        22.04447         2.11859
O         22.67011        32.61032        -2.14548
H         23.27820        33.36074        -2.32106
O         13.23151        29.33663        -2.56166
H         14.03726        28.92624        -2.94397
O         16.00376        11.13639        -0.87874
H         15.67557        11.76661        -1.56469
O         11.48017        31.27803        -2.35952
H         12.28491        31.02462        -2.87049
O          9.28356        16.91055         3.07258
H          9.42226        17.89093         3.06043
O         34.25526        11.70671        -3.40369
H         33.55808        12.22088        -3.86936
H          5.12648        18.77461         1.48645
H          3.83985        20.87556         1.26005
H          3.74836        23.24616         0.59385
H          4.83093        25.29000        -0.32377
H          7.78081        14.53046         2.17717
H          6.47195        16.72130         1.98520
H          6.05257        27.41312        -0.47685
H          7.27259        29.48117        -0.37253
H         10.23329        10.38389         2.53434
H          8.98121        12.41654         2.18273
H          8.55261        31.47417         0.19876
H          9.87512        33.49964         0.80818
H         12.90347         6.48202         4.05635
H         11.51150         8.40241         3.13725
H         11.09748        35.19344         1.73648
H         12.20892        36.58028         3.36847
H         15.08674         5.58993         4.72494
H         14.26799        37.48943         4.34996
H         17.56241         5.44963         4.18970
H         16.83133        37.69627         4.29514
H         19.98078         5.53174         4.09099
H         19.34104        37.95808         4.04385
H         22.46964         5.61052         3.99205
H         21.76766        38.23201         3.66505
H         24.86504         5.41742         3.42767
H         24.25683        38.64970         3.10648
H         27.33139         5.23424         2.92627
H         26.72194        38.86024         2.80326
H         29.76815         5.26564         2.62248
H         29.08561        38.78672         3.01056
H         34.23617         6.06064         1.04700
H         32.26565         5.10769         2.15212
H         33.77644        37.70038         2.75757
H         31.59744        38.81065         3.13235
H         35.21783         7.33074        -0.58819
H         36.48344         9.55150        -2.12231
H         36.19616        33.34344         2.65665
H         34.98845        35.48972         2.77005
H         37.71483        11.75572        -0.90816
H         38.72640        13.79966        -0.10019
H         38.68260        29.29758         1.69681
H         37.32489        31.13940         2.76457
H         39.73516        15.77675         0.85600
H         41.00479        17.89860         1.60360
H         40.97140        24.60450         2.65398
H         39.92815        26.80537         2.35836
H         42.12001        19.98889         2.44335
H         42.05181        22.38887         2.89234
