         429
 CSIRO Nanostructure Databank - Neutral Graphene Oxide Data Set
C          1.18638         3.34262         0.19877
C          0.04327         4.01928         0.40772
C          1.17258         6.19359         0.57430
C          0.02971         5.46685         0.53480
C          1.16001         7.63850         1.04760
C         -0.02267         8.42778         0.53390
C          1.17545        10.58252         0.52661
C         -0.00745         9.76441         0.33300
C          1.19279        11.95283         0.34455
C         -0.01413        12.71611         0.10595
C          1.25567        14.82804        -0.16065
C          0.00079        14.05242        -0.10320
C          1.22149        16.36050        -0.19769
C         -0.03947        17.10584        -0.04985
C          1.20807        19.20760         0.12011
C         -0.02711        18.44736         0.13901
C          1.18949        20.64901        -0.05018
C         -0.00835        21.39991        -0.06304
C          1.11749        23.50836        -0.62192
C         -0.02615        22.78872        -0.27397
C          1.16262        24.96195        -0.68651
C          0.01167        25.72858        -0.36695
C          1.20924        27.82915        -0.69428
C          0.03390        27.11067        -0.36830
C          1.22395        29.28875        -0.75676
C          0.02442        30.03135        -0.58868
C          1.18069        32.14908        -0.94128
C         -0.00139        31.40759        -0.67922
C          1.17134        33.57178        -1.14482
C         -0.01603        34.39532        -0.96640
C          1.12279        36.44786        -0.09835
C         -0.04353        35.68533        -0.49777
C          1.13963        37.37530         0.97482
C          3.68258         3.28015         0.38351
C          2.47753         4.06750        -0.10693
C          3.68090         6.37804         0.16823
C          2.50983         5.48011         0.59236
C          3.63988         7.78581         0.51068
C          2.45055         8.38951         0.80561
C          3.64591        10.59163         1.25581
C          2.38610         9.85775         0.99137
C          3.72653        12.02207         0.82127
C          2.47541        12.70962         0.37093
C          3.68789        14.91332         0.52590
C          2.48730        14.18052         0.29760
C          3.63466        16.37728         0.42364
C          2.46484        17.06560         0.17851
C          3.67326        19.23911         0.03042
C          2.42749        18.52190         0.15913
C          3.65201        20.64612        -0.26526
C          2.41551        21.33238        -0.28704
C          3.63109        23.43633        -1.10122
C          2.35714        22.72654        -0.78514
C          3.61581        24.93909        -1.45612
C          2.35744        25.66879        -0.99652
C          3.60625        27.83235        -1.35975
C          2.37453        27.08099        -1.00381
C          3.66751        29.28632        -1.16650
C          2.42986        30.00282        -0.98492
C          3.64802        32.14698        -1.20234
C          2.41913        31.43831        -1.04739
C          3.66219        33.54818        -1.32335
C          2.39874        34.17203        -1.46431
C          3.59709        36.43901        -0.09301
C          2.36986        36.16255        -0.69699
C          3.59789        37.41606         0.94883
C          2.34457        37.89465         1.42900
C          6.23587         3.34686         0.47534
C          4.93639         3.67833         0.00394
C          6.16798         6.51882        -0.02378
C          4.88685         5.90595        -0.29728
C          6.20155         7.85668         0.29942
C          4.89461         8.64524         0.20400
C          6.19419        10.67584         1.07749
C          4.95984         9.81796         1.29948
C          6.17095        12.05275         1.18428
C          4.87434        12.81123         1.41164
C          6.14400        15.03410         1.22970
C          4.87584        14.25710         0.94897
C          6.09930        16.38030         0.53164
C          4.85751        17.19944         0.80419
C          6.12658        19.23016        -0.10026
C          4.88877        18.56058         0.14565
C          6.11851        20.64858        -0.37589
C          4.89631        21.32432        -0.45867
C          6.15037        23.44106        -1.05031
C          4.88530        22.82909        -0.48395
C          6.15091        24.93014        -1.23835
C          4.86595        25.67287        -0.91228
C          6.18886        27.82948        -1.21524
C          4.92882        27.09582        -1.42556
C          6.16697        29.23501        -1.23815
C          4.90210        29.93413        -1.26168
C          6.21909        32.15413        -1.31760
C          4.90098        31.39815        -1.40793
C          6.19102        33.59124        -0.99347
C          4.91331        34.35025        -1.16793
C          6.04854        36.09472         0.35162
C          4.84775        35.77256        -0.53180
C          6.06144        37.49823         0.91667
C          4.83473        38.01128         1.34875
C          8.61493         3.54225         0.50519
C          7.37228         4.17258         0.28127
C          8.69597         6.39852         0.30521
C          7.38123         5.64393        -0.04513
C          8.63873         7.82762         0.65203
C          7.43776         8.53687         0.63512
C          8.67281        10.67672         0.89797
C          7.43228         9.95855         0.91969
C          8.69046        12.10053         0.95013
C          7.44367        12.84272         1.37389
C          8.61019        14.99508         0.80430
C          7.35282        14.23622         0.80750
C          8.65036        16.39935         0.39263
C          7.37384        17.08038         0.15368
C          8.60250        19.21823        -0.18281
C          7.35776        18.53945        -0.03143
C          8.59817        20.62033        -0.48239
C          7.39208        21.33720        -0.55377
C          8.63291        23.48537        -0.89952
C          7.42401        22.74410        -0.83006
C          8.62846        24.94524        -0.96934
C          7.42495        25.66787        -1.09081
C          8.64254        27.80527        -0.92417
C          7.41038        27.09349        -1.06024
C          8.63343        29.23357        -0.90604
C          7.41291        29.96284        -1.07916
C          8.65299        32.08136        -0.79635
C          7.43950        31.37757        -1.03326
C          8.64141        33.52378        -0.62919
C          7.38050        34.21552        -0.65411
C          8.59498        36.38090         0.01130
C          7.33468        35.66460        -0.32006
C          8.54165        37.64024         0.79521
C          7.28062        38.16173         1.16754
C         11.10900         3.43938         0.90170
C          9.84177         4.22609         0.64898
C         11.15543         6.29671         0.95521
C          9.86738         5.61058         0.72357
C         11.17843         7.78922         1.09597
C          9.84658         8.52483         1.26730
C         11.12050        10.64433         0.63916
C          9.90267         9.97076         0.83581
C         11.11853        12.06912         0.52777
C          9.89883        12.77427         0.76079
C         11.14437        14.95398         0.39198
C          9.93197        14.24892         0.83427
C         11.12331        16.36067         0.26398
C          9.85588        17.09716         0.26708
C         11.07964        19.26253        -0.05550
C          9.82283        18.50454        -0.01492
C         11.11450        20.64175        -0.53502
C          9.84901        21.29227        -0.99896
C         11.09970        23.48134        -0.78216
C          9.86203        22.79069        -0.82251
C         11.09952        24.93885        -0.73641
C          9.86267        25.65872        -0.85251
C         11.10867        27.80154        -0.64323
C          9.87276        27.08387        -0.81709
C         11.10425        29.21070        -0.62176
C          9.86778        29.94068        -0.75148
C         11.16755        32.09517        -0.78120
C          9.86184        31.35517        -0.70976
C         11.10583        33.52718        -0.31567
C          9.85415        34.22450        -0.34682
C         11.03250        36.29721         0.31725
C          9.85643        35.62079        -0.01274
C         11.00422        37.68204         0.75401
C          9.74646        38.28865         1.06599
C         13.49357         3.48465         0.07748
C         12.34426         4.17501         0.42897
C         13.54304         6.32208         0.24209
C         12.36861         5.59235         0.49609
C         13.55426         7.77325         0.29722
C         12.38733         8.50335         0.61829
C         13.56281        10.62298         0.18882
C         12.36694         9.91828         0.49039
C         13.56061        12.06087         0.12276
C         12.34294        12.77700         0.29454
C         13.56785        14.90770        -0.01494
C         12.34256        14.21395         0.20309
C         13.55761        16.32721        -0.12074
C         12.34361        17.02667        -0.01416
C         13.57650        19.13864        -0.72030
C         12.38301        18.50193        -0.04660
C         13.59184        20.64085        -0.59654
C         12.32991        21.33789        -0.61517
C         13.60198        23.51392        -0.94298
C         12.31347        22.76106        -0.77320
C         13.52102        24.84872        -0.24266
C         12.28928        25.63307        -0.49309
C         13.55871        27.71864        -0.15354
C         12.33756        27.05705        -0.41892
C         13.64734        29.20172        -0.37422
C         12.32601        29.93984        -0.31557
C         13.46731        32.03650         0.35491
C         12.31148        31.30280        -0.20493
C         13.53998        33.48932         0.16916
C         12.29980        34.20340        -0.04910
C         13.49119        36.32586         0.38473
C         12.29578        35.62460         0.21868
C         13.46865        37.72142         0.71381
C         12.21187        38.35831         0.93496
C         15.88483         3.47883        -0.53331
C         14.70182         4.18130        -0.20294
C         15.93820         6.31375        -0.36693
C         14.72719         5.61027        -0.11667
C         15.96319         7.74940        -0.31006
C         14.76218         8.47361        -0.01964
C         16.00282        10.59829        -0.27031
C         14.77754         9.89896        -0.02772
C         16.02279        12.03368        -0.26313
C         14.79055        12.76458        -0.07566
C         16.04235        14.90395        -0.14098
C         14.80223        14.18332        -0.08753
C         16.05507        16.31397        -0.12273
C         14.81744        17.06370        -0.18402
C         16.09089        19.25360        -0.06046
C         14.84100        18.43942        -0.28026
C         16.06582        20.51653        -0.95360
C         14.81156        21.32999        -0.68733
C         16.08724        23.44264        -0.40849
C         14.85448        22.73454        -0.62870
C         16.07592        24.83017        -0.08843
C         14.79182        25.55068         0.09229
C         15.97481        27.70809         0.38583
C         14.78117        27.03142         0.10319
C         15.99328        29.15941         0.52270
C         14.80939        29.84947         0.33026
C         16.01235        32.04509         0.68636
C         14.75211        31.28557         0.63921
C         15.96393        33.44307         0.59576
C         14.74840        34.15665         0.35246
C         16.00685        36.35354         0.57265
C         14.79123        35.64201         0.02923
C         15.93917        37.78589         0.82297
C         14.67858        38.43099         0.86293
C         18.29755         3.44881        -1.07239
C         17.08564         4.15804        -0.76079
C         18.34455         6.28596        -0.89754
C         17.11867         5.59017        -0.67729
C         18.38282         7.71128        -0.82001
C         17.17827         8.44275        -0.54299
C         18.44194        10.57050        -0.69700
C         17.20482         9.87476        -0.50028
C         18.46715        11.99945        -0.65199
C         17.23933        12.72117        -0.44568
C         18.49320        14.83229        -0.33815
C         17.27971        14.16642        -0.32051
C         18.53168        16.25947         0.01327
C         17.29122        17.03831        -0.13416
C         18.61440        19.10646        -0.29532
C         17.35480        18.43093        -0.20723
C         18.64524        20.56859        -0.55712
C         17.36827        21.32318        -0.82599
C         18.53485        23.42336        -0.09801
C         17.33424        22.75482        -0.44633
C         18.49257        24.79535         0.28599
C         17.26685        25.49306         0.25787
C         18.47729        27.65888         0.96722
C         17.17405        26.91356         0.70517
C         18.48183        29.15749         1.01867
C         17.21017        29.90092         0.85634
C         18.53518        32.03978         1.08921
C         17.23383        31.29589         0.81433
C         18.52130        33.48032         0.61482
C         17.23195        34.20931         0.50821
C         18.39812        36.37545         1.17508
C         17.18097        35.67251         0.72800
C         18.38347        37.84998         1.13487
C         17.12937        38.50158         1.03359
C         19.47094         4.11861        -1.27568
C         20.73718         6.25136        -1.39084
C         19.52873         5.55090        -1.19067
C         20.77578         7.63453        -1.30502
C         19.61423         8.39145        -1.02358
C         20.84099        10.55914        -1.12706
C         19.64727         9.84349        -0.94468
C         20.86178        11.95326        -1.07726
C         19.70065        12.68812        -0.83122
C         21.00738        14.86719        -0.49914
C         19.72236        14.19859        -0.93543
C         21.07505        16.15502        -0.13498
C         19.85511        16.97903         0.08824
C         21.05971        19.18729        -0.14497
C         19.83814        18.43987        -0.15156
C         21.06818        20.56019        -0.07651
C         19.86110        21.32305        -0.18305
C         21.01937        23.49311         0.10483
C         19.80686        22.71282        -0.07349
C         20.99833        24.77926         0.50137
C         19.71966        25.45404         0.90746
C         20.79549        27.65770         0.10890
C         19.71704        26.94955         0.65664
C         20.83566        29.04481         0.05920
C         19.79134        29.86285         0.66722
C         20.89307        32.07177         0.29056
C         19.77191        31.34050         0.53732
C         20.94401        33.50768         0.49813
C         19.81407        34.21778         0.75850
C         20.93416        36.52463         0.94864
C         19.77440        35.65752         1.12403
C         20.83565        37.88718         1.10398
C         19.58942        38.54876         1.23704
O         19.40867        29.55062         2.08305
O         19.18330        16.55960         1.32931
O         17.67679        27.10508         2.08051
O         17.97082        33.75045        -0.71418
O          7.91976        36.54140        -1.31460
O         19.02978        35.84151         2.37867
O          3.51249        12.17810        -0.59218
O          4.76703         9.22504        -1.02824
O          2.77604        10.30966         2.39659
O         18.25351        20.98599        -1.95046
O          5.61320        31.83770        -2.62240
O          3.00487        22.69200        -2.17236
O          4.22594        27.42324        -2.63594
O         11.40608         6.92542         2.28127
O          8.30997         6.04588        -1.08172
O         11.92720        19.10823         1.17909
O          5.06997        35.58736        -1.93918
O          9.40944        14.79005         2.10829
O          1.37192        15.58477        -1.43033
O          6.49721        16.34871        -0.84860
O          4.98504         4.69296        -0.98507
O          2.36739        35.49270        -1.92948
O         13.79750        31.60415         1.72998
O         13.96201        24.89814         1.14364
O          6.04980        24.03509        -2.38689
O          1.02426         7.54615         2.51551
H          1.16906         8.44931         2.87530
O          2.47751         4.23403        -1.53396
H          3.39194         4.47289        -1.81567
O          4.76274        17.49331         2.22697
H          5.11397        16.71160         2.72383
O         15.94355        20.06613        -2.32642
H         16.84236        20.17239        -2.73169
O         13.71497        23.85707        -2.37271
H         13.63192        23.02547        -2.88673
O         14.90895        35.73902        -1.43114
H         14.14342        35.26847        -1.82433
O         11.24385         3.20013         2.31813
H         11.36156         4.06726         2.75986
O          9.56528         8.60329         2.69904
H         10.08480         7.87924         3.12507
O          7.55731        12.98060         2.87575
H          8.39294        13.50714         3.00405
O         18.68426        32.11189         2.53008
H         18.91158        31.20095         2.84065
O         19.61242        25.25542         2.35067
H         18.84361        25.79880         2.65673
O          3.64874        25.02956        -2.88830
H          3.24854        24.20193        -3.24262
O         19.62505        14.49749        -2.38052
H         18.87629        13.97529        -2.74002
O          4.76429        25.84230         0.51969
H          4.75998        24.94923         0.95029
O          5.10094         9.20122         2.57490
H          4.23673         9.31363         3.04240
O          2.76608         5.22340         2.00471
H          2.33757         5.94826         2.51862
O         11.48451        32.18065        -2.23002
H         10.72709        32.62748        -2.66649
O         13.43417        18.84699        -2.14670
H         14.25336        19.19040        -2.58242
O          5.88167        35.20660         1.50869
H          6.38832        35.57860         2.26101
O          6.20843        15.31649         2.67767
H          6.58528        14.50238         3.10257
O         14.01627        29.32538        -1.81649
H         13.23360        29.05328        -2.34324
O          4.83022        23.20656         0.94420
H          5.51090        22.68689         1.42377
O          4.66291        12.83675         2.86004
H          5.54961        12.82756         3.29030
O          9.81367        21.07183        -2.47333
H          9.01590        21.53317        -2.81304
O         16.06755        19.75894         1.30770
H         16.05071        18.99248         1.91906
H          1.17912         2.24597         0.10971
H         -0.90900         3.48447         0.53730
H         -0.94931         5.94911         0.67047
H         -0.96456         7.88835         0.35629
H         -0.92627        10.24892        -0.02815
H         -0.97982        12.19261         0.10781
H         -0.94135        14.57502        -0.31767
H         -0.99639        16.57230        -0.13104
H         -0.98442        18.97886         0.22655
H         -0.96580        20.90626         0.14882
H         -0.98977        23.30444        -0.16168
H         -0.92859        25.22364        -0.10924
H         -0.88925        27.64375        -0.10640
H         -0.92264        29.50729        -0.40638
H         -0.95991        31.93232        -0.56965
H         -0.98993        33.89494        -1.08414
H         -1.02892        36.11784        -0.26132
H          0.19500        37.67907         1.44817
H          3.55564         2.53388         1.18066
H          2.34299        38.65285         2.22506
H          6.39214         2.37774         0.97395
H          4.80940        38.94383         1.93243
H          8.62147         2.44921         0.63167
H          7.24666        39.13660         1.67830
H         11.04060         2.43700         0.41154
H          9.73798        39.27381         1.55615
H         13.48827         2.38513         0.04794
H         12.19999        39.41047         1.25652
H         15.85856         2.38094        -0.59665
H         14.64159        39.50783         1.08590
H         18.26263         2.35168        -1.13829
H         17.08880        39.59725         1.12909
H         20.39397         3.56772        -1.50808
H         21.65551         5.69013        -1.61556
H         21.73692         8.14024        -1.46616
H         21.78328        10.03235        -1.32454
H         21.81552        12.46861        -1.25255
H         21.94379        14.29895        -0.59860
H         22.05416        16.59791         0.10426
H         22.01201        18.64585        -0.06353
H         22.02700        21.07397         0.07377
H         21.98687        23.01197        -0.09667
H         21.94638        25.30910         0.67065
H         21.65435        27.10189        -0.29435
H         21.65629        29.54317        -0.47439
H         21.83042        31.56732         0.01145
H         21.93294        33.98791         0.49903
H         21.89290        36.07822         0.64860
H         21.74487        38.50083         1.02779
H         19.57052        39.64710         1.28385
