         640
 CSIRO Nanostructure Databank - Neutral Graphene Oxide Data Set
C         23.13679        27.70612         1.63748
C         23.07270        28.89321         1.00941
C         22.96631        31.64122         0.11135
C         22.87762        32.97094        -0.16579
C         23.00640        35.90047         0.13338
C         23.05469        37.31508         0.33450
C         22.94586        40.20813         0.01885
C         22.91345        41.59351        -0.04831
C         22.83076        44.59278        -0.40931
C         22.85004        45.94471        -0.53997
C         25.57095        24.87993         1.82453
C         24.42229        25.56351         1.84473
C         25.60940        27.63684         1.18848
C         24.44801        27.06800         1.98421
C         25.49298        28.85982         0.49150
C         24.25644        29.57055         0.48040
C         25.31564        31.46223        -0.84521
C         24.17373        30.88236        -0.01874
C         25.33269        32.99697        -0.87858
C         24.05708        33.75140        -0.58156
C         25.47432        35.83665        -0.06506
C         24.11772        35.18628        -0.21521
C         25.44023        37.35258        -0.18613
C         24.20714        38.04698         0.09832
C         25.37039        40.24053        -0.15032
C         24.17357        39.51246         0.00722
C         25.34126        41.65535        -0.24845
C         24.09948        42.33696        -0.15549
C         25.36710        44.55355        -0.22591
C         24.05738        43.82150        -0.10369
C         25.33388        45.94484        -0.74556
C         24.07974        46.70790        -0.61805
C         25.37765        48.78162        -0.79065
C         24.12992        48.07866        -0.72497
C         28.16815        23.46860         2.04298
C         28.09655        24.78136         1.62632
C         26.88651        25.61913         1.98696
C         28.00838        27.50611         0.67707
C         26.81724        26.92623         1.22349
C         27.95878        28.73650         0.03608
C         26.64224        29.33243        -0.38943
C         27.82519        31.57468        -0.59017
C         26.66789        30.84913        -0.52176
C         27.82179        33.04237        -0.70951
C         26.62471        33.71663        -0.79671
C         27.86889        35.93201        -0.77821
C         26.54910        35.22004        -0.96859
C         27.84677        37.31945        -0.71157
C         26.62220        38.03469        -0.41742
C         27.78257        40.24112        -0.89056
C         26.69966        39.51204        -0.07221
C         27.82426        41.69774        -0.49948
C         26.59830        42.40117        -0.38793
C         27.86435        44.52244        -0.41868
C         26.63032        43.80429        -0.38073
C         27.89935        45.95335        -0.52887
C         26.65420        46.68596        -0.85324
C         27.90012        48.91203        -0.82193
C         26.59506        48.15100        -0.77203
C         27.89310        50.23093        -0.09077
C         30.50896        23.23469         1.36473
C         29.37538        22.71139         1.93453
C         30.45003        24.56914         0.66904
C         29.25358        25.41013         1.05191
C         30.49262        27.42452         0.35373
C         29.25514        26.75585         0.70817
C         30.48542        28.77777        -0.02476
C         29.19499        29.38776        -0.39528
C         30.40367        31.64405        -0.51004
C         29.14600        30.88391        -0.66070
C         30.34268        33.06145        -0.62342
C         29.09402        33.76550        -0.73575
C         30.34008        35.90332        -0.85578
C         29.09456        35.18177        -0.82731
C         30.35763        37.34349        -0.85527
C         29.08290        38.07336        -1.16591
C         30.27329        40.16009        -0.44787
C         29.10092        39.52297        -0.76995
C         30.25056        41.58599        -0.04778
C         29.03117        42.37565        -0.31261
C         30.33812        44.49292        -0.12650
C         29.07846        43.79220        -0.25235
C         30.35089        45.92296        -0.22748
C         29.11203        46.65782        -0.42871
C         30.32445        48.80031        -0.26517
C         29.12545        48.09287        -0.45891
C         30.32961        50.19694        -0.04616
C         29.06513        50.85846         0.17743
C         32.99595        20.41625         1.49067
C         31.80088        21.11114         1.52375
C         32.98329        23.20291         1.08659
C         31.76828        22.50676         1.31779
C         32.96344        24.64098         0.85748
C         31.75328        25.32794         0.73192
C         32.95210        27.45854         0.36894
C         31.73430        26.73274         0.49277
C         32.92926        28.86694         0.10562
C         31.68823        29.53014        -0.11975
C         32.86735        31.71009        -0.32556
C         31.63931        30.96525        -0.34312
C         32.83009        33.10531        -0.53430
C         31.57841        33.78863        -0.68525
C         32.78978        35.96248        -1.22556
C         31.55116        35.19022        -0.86019
C         32.82395        37.29362        -0.43799
C         31.53990        38.06134        -0.63361
C         32.78527        40.19634        -0.25702
C         31.54302        39.46596        -0.44792
C         32.80478        41.56075        -0.02228
C         31.54811        42.31558         0.15842
C         32.80244        44.47594         0.03342
C         31.55599        43.78900         0.01872
C         32.79641        45.90664        -0.01956
C         31.57905        46.60487        -0.16092
C         32.73864        48.74605         0.42875
C         31.64823        48.09215        -0.41675
C         32.80463        50.23102         0.16733
C         31.58559        50.92515         0.01836
C         32.82084        53.01669        -0.14833
C         31.61827        52.33932        -0.10950
C         35.51583        18.95496         1.39609
C         35.47736        20.37103         1.30556
C         34.22613        21.08836         1.30347
C         35.46718        23.22044         1.00842
C         34.21973        22.50513         1.12716
C         35.44421        24.65014         0.82159
C         34.20455        25.35192         0.73811
C         35.41982        27.48575         0.45334
C         34.18937        26.75974         0.50915
C         35.39165        28.91639         0.25107
C         34.16933        29.59225         0.05437
C         35.34630        31.73522        -0.19049
C         34.14270        31.02402        -0.15549
C         35.34393        33.24212        -0.12208
C         34.06141        33.87726        -0.59722
C         35.30969        35.94337        -1.17708
C         34.05685        35.19141        -0.96217
C         35.29721        37.45054        -1.09448
C         34.04948        38.13808        -0.72145
C         35.31318        40.24007        -0.47209
C         34.05749        39.48590        -0.46156
C         35.32458        41.60055        -0.18318
C         34.07917        42.27738         0.34356
C         35.26429        44.46340         0.05073
C         34.04515        43.76745         0.08530
C         35.26510        45.89946         0.06783
C         34.04522        46.63231         0.08160
C         35.26770        48.76287         0.32303
C         34.05492        48.04069         0.22706
C         35.28835        50.21500         0.34911
C         34.04135        50.92166         0.18119
C         35.32327        53.01722        -0.15719
C         34.05613        52.33185        -0.02934
C         35.36190        54.31058        -0.75836
C         37.95135        18.96532         1.39969
C         36.70927        18.26992         1.42915
C         37.92902        20.38143         1.30175
C         36.70763        21.08982         1.23733
C         37.94238        23.24945         0.94953
C         36.69378        22.53288         1.09574
C         37.93053        24.67138         0.75967
C         36.66535        25.37453         0.73051
C         37.91083        27.54573         0.81233
C         36.63620        26.78457         0.59275
C         37.85142        28.96899         0.33901
C         36.64558        29.64229         0.19293
C         37.80639        31.80019        -0.23465
C         36.61070        31.07342        -0.06542
C         37.80940        33.18270        -0.61656
C         36.59571        33.88535        -0.67883
C         37.79746        35.98723        -1.13925
C         36.59986        35.26076        -1.00255
C         37.78934        37.44330        -1.09996
C         36.57955        38.15253        -0.93001
C         37.79981        40.25444        -0.66088
C         36.56786        39.54966        -0.70352
C         37.79984        41.67543        -0.41324
C         36.55129        42.34291        -0.17458
C         37.75750        44.47205         0.09095
C         36.52744        43.75067         0.00926
C         37.72129        45.87826         0.23122
C         36.49515        46.60682         0.17280
C         37.71726        48.74750         0.42623
C         36.48569        48.02735         0.30136
C         37.70480        50.15902         0.65744
C         36.50838        50.93908         0.48810
C         37.75156        53.15958         0.08149
C         36.53298        52.37906         0.22346
C         37.78582        54.37815        -0.66687
C         36.54528        54.93873        -1.07164
C         40.40809        16.12465         1.50852
C         39.27101        16.84605         1.71010
C         40.42372        18.94646         1.10182
C         39.19758        18.24710         1.40229
C         40.42817        20.36523         1.02985
C         39.21705        21.13880         1.48165
C         40.38508        23.21355         0.64900
C         39.16957        22.55425         0.97057
C         40.37838        24.63425         0.42356
C         39.14975        25.36836         0.55760
C         40.32162        27.48894         0.08489
C         39.16224        26.79908         0.41357
C         40.34431        28.91375        -0.07747
C         39.13534        29.67761         0.28691
C         40.31117        31.77867        -0.61523
C         39.10787        31.16122        -0.03578
C         40.26144        33.13650        -0.97902
C         39.04855        33.85569        -0.91311
C         40.26750        35.98355        -1.17911
C         39.04557        35.28205        -1.11424
C         40.29166        37.46288        -1.43515
C         39.01225        38.15891        -1.06856
C         40.29686        40.24665        -0.76456
C         39.02851        39.54711        -0.84707
C         40.27895        41.74313        -0.89568
C         39.00964        42.39239        -0.39123
C         40.26459        44.45881         0.01375
C         39.02096        43.77406        -0.06856
C         40.29561        45.85817         0.41761
C         38.95226        46.61527         0.49971
C         40.20000        48.80931         0.26489
C         38.94246        48.06696         0.39457
C         40.19723        50.19264         0.74646
C         38.96103        50.69676         1.07865
C         40.25483        53.15689         0.19182
C         38.98204        52.76750         0.66124
C         40.27408        54.38360        -0.55309
C         39.05347        55.02425        -0.91877
C         40.34128        56.91862        -1.77967
C         39.13266        56.29924        -1.55554
C         42.88394        16.06171         1.06810
C         41.56986        16.72055         0.76334
C         42.85495        18.90593         0.75681
C         41.62757        18.22084         0.91057
C         42.83282        20.31777         0.64084
C         41.62092        21.04778         0.73484
C         42.80189        23.16903         0.18367
C         41.61448        22.49437         0.56201
C         42.77196        24.56755        -0.11595
C         41.57566        25.29447         0.08480
C         42.52484        27.28600        -1.10357
C         41.66309        26.79710         0.06077
C         42.62099        28.81405        -1.10991
C         41.46654        29.58569        -0.58578
C         42.75116        31.69613        -0.96929
C         41.49484        31.00889        -0.75046
C         42.77470        33.12008        -1.07627
C         41.50562        33.82117        -1.49071
C         42.71310        35.99766        -1.07327
C         41.50939        35.29939        -1.19209
C         42.70607        37.40176        -0.79420
C         41.52679        38.12543        -0.87659
C         42.77435        40.25330        -0.50805
C         41.50507        39.55538        -0.69814
C         42.76552        41.68874        -0.38121
C         41.54965        42.40270        -0.42268
C         42.75383        44.49491         0.06178
C         41.52299        43.79220        -0.15025
C         42.75667        45.92283         0.22688
C         41.54071        46.60993         0.27656
C         42.75703        48.81800         0.50922
C         41.52139        48.06555         0.22268
C         42.72727        50.20474         0.65127
C         41.46864        50.98475         1.02010
C         42.69580        53.02525         0.14546
C         41.46489        52.41050         0.42955
C         42.73743        54.36865        -0.38087
C         41.53023        55.01187        -0.79064
C         42.81584        56.95774        -1.54011
C         41.56519        56.30565        -1.38584
C         44.04911        16.73311         0.97038
C         45.31696        18.80377         0.42739
C         44.10869        18.16074         0.69725
C         45.36993        20.27868         0.37393
C         44.09242        21.05989         0.50802
C         45.19239        23.10767        -0.38474
C         44.04223        22.46644         0.04929
C         45.17360        24.50941        -0.68106
C         43.95948        25.20996        -0.59913
C         45.21600        27.33621        -1.25736
C         43.88752        26.58504        -1.12471
C         45.22938        28.81747        -1.18873
C         43.94544        29.54096        -1.22687
C         45.20832        31.68090        -0.95300
C         43.96878        30.99234        -0.97974
C         45.21484        33.10665        -0.94063
C         43.97951        33.81090        -1.05044
C         45.24645        35.98639        -0.84646
C         44.00981        35.28834        -1.36695
C         45.23676        37.35701        -0.56814
C         43.93929        38.04924        -0.21935
C         45.22417        40.22416        -0.21302
C         43.97406        39.54747        -0.39467
C         45.22736        41.65279        -0.08514
C         43.99878        42.37359        -0.13717
C         45.21675        44.50101         0.20674
C         43.98884        43.79258         0.03541
C         45.21460        45.92750         0.34580
C         43.99321        46.65049         0.33440
C         45.21237        48.77843         0.63459
C         43.99128        48.07972         0.48921
C         45.20237        50.21473         0.63625
C         43.96068        50.92471         0.58334
C         45.18478        53.02489         0.22517
C         43.95265        52.32885         0.35094
C         45.19966        54.41583        -0.10616
C         43.97238        55.05780        -0.52073
C         43.97771        56.35593        -1.10302
C         47.71259        18.80978        -0.09590
C         46.57045        18.12957         0.22811
C         47.71563        20.23183        -0.37887
C         46.54288        20.93908        -0.22283
C         47.69378        23.09929        -0.76702
C         46.40463        22.32055        -0.81443
C         47.69494        24.48641        -0.80671
C         46.43370        25.22431        -0.84513
C         47.68525        27.39876        -0.58380
C         46.44549        26.60369        -0.92050
C         47.70195        28.74360        -1.31560
C         46.41341        29.50865        -1.10236
C         47.66822        31.65217        -0.92123
C         46.44340        30.95409        -0.99612
C         47.67469        33.08297        -0.82634
C         46.45840        33.81177        -0.88284
C         47.68481        35.93274        -0.52691
C         46.46270        35.24937        -0.78611
C         47.68216        37.34627        -0.33699
C         46.45484        38.06212        -0.34102
C         47.69428        40.18270         0.04480
C         46.45269        39.49617        -0.14850
C         47.69550        41.63278         0.18127
C         46.45441        42.35183         0.12526
C         47.67038        44.47920         0.44550
C         46.44560        43.77548         0.25055
C         47.67579        45.90624         0.55538
C         46.44925        46.63039         0.50886
C         47.68735        48.73862         0.74625
C         46.45531        48.05066         0.64811
C         47.70560        50.22949         1.00564
C         46.41906        50.93796         0.64246
C         47.67215        53.06935         0.43392
C         46.42591        52.32936         0.43838
C         47.61577        54.47273         0.25211
C         46.42621        55.11681        -0.04464
C         50.19349        20.25533        -0.84495
C         48.93000        20.94399        -0.79917
C         50.11314        23.07495        -1.33207
C         48.90248        22.33817        -0.93261
C         50.16877        24.53179        -1.11395
C         48.95039        25.22755        -0.90074
C         50.17867        27.35169        -0.94830
C         48.96518        26.63711        -0.83992
C         50.17861        28.80806        -0.93233
C         48.95288        29.52370        -0.98481
C         50.15413        31.64731        -0.77674
C         48.92471        30.92541        -0.89876
C         50.14796        33.07233        -0.64605
C         48.91465        33.78985        -0.66085
C         50.13823        35.89132        -0.20220
C         48.91346        35.20032        -0.48317
C         50.09740        37.28290         0.11771
C         48.90967        38.02204        -0.01400
C         50.16710        40.13141         0.36899
C         48.90781        39.45570         0.15114
C         50.23776        41.64373         0.25423
C         48.89605        42.33571         0.37943
C         50.09378        44.46726         0.85698
C         48.89152        43.75215         0.54626
C         50.12533        45.87641         0.85779
C         48.90607        46.60916         0.69210
C         50.17322        48.75284         0.76618
C         48.90581        48.03751         0.73389
C         50.19159        50.17358         0.68314
C         48.90679        50.88376         0.33000
C         50.14033        53.03263         0.75164
C         48.91332        52.38009         0.56203
C         51.37711        20.89269        -1.06112
C         52.68527        23.07893        -1.33796
C         51.42398        22.30585        -1.44482
C         52.66602        24.49428        -1.21204
C         51.40620        25.21879        -1.13078
C         52.65855        27.36288        -1.01384
C         51.41312        26.64195        -1.02719
C         52.65755        28.78824        -0.97387
C         51.40569        29.51627        -0.91289
C         52.61107        31.69559        -0.86450
C         51.38812        30.94342        -0.83220
C         52.61625        33.07444        -0.69767
C         51.37919        33.78604        -0.52767
C         52.62617        35.87877         0.01543
C         51.37016        35.18335        -0.26888
C         52.58023        37.21440         0.47783
C         51.28445        37.92000         0.78784
C         52.60095        40.11844         0.85027
C         51.33239        39.42867         0.61179
C         52.61555        41.55325         1.05524
C         51.25039        42.19058         1.26944
C         52.59441        44.46525         1.36001
C         51.27933        43.71563         1.29800
C         52.60284        45.90745         1.08097
C         51.37703        46.60432         0.96029
C         52.67772        48.75321         0.63266
C         51.37729        48.02335         0.84607
C         52.63539        50.20539         1.03046
C         51.39339        50.91005         0.85612
C         51.33419        52.33194         0.88786
C         55.10702        23.08364        -1.31577
C         53.90278        22.39423        -1.40411
C         55.12126        24.47244        -1.14974
C         53.90064        25.20160        -1.11031
C         55.11091        27.38473        -0.98404
C         53.89873        26.65490        -1.02227
C         55.12013        28.80237        -1.06136
C         53.88287        29.49296        -1.06521
C         55.17096        31.70763        -1.11314
C         53.85673        30.96282        -1.18896
C         55.15994        33.11381        -0.70042
C         53.87934        33.89244        -0.90614
C         55.10370        35.66410         0.54474
C         53.84928        35.20628        -0.16784
C         55.12756        37.16947         0.83444
C         53.81267        37.92058         0.82648
C         55.07577        40.06358         1.11383
C         53.78836        39.39442         0.86301
C         55.09875        41.56068         1.23758
C         53.80420        42.27505         1.18570
C         55.06710        44.41994         1.27662
C         53.85228        43.70719         1.26417
C         55.06741        45.85786         1.33060
C         53.85454        46.59770         1.16166
C         55.07965        48.72282         1.43016
C         53.89034        48.01389         1.12950
C         55.03007        50.13935         1.52614
C         53.83149        50.84118         1.37480
C         57.68868        24.53310        -1.32508
C         56.41580        25.15898        -0.92616
C         57.65173        27.40023        -1.06178
C         56.39427        26.67487        -0.82366
C         57.64119        28.81754        -1.06601
C         56.38638        29.53167        -1.03974
C         57.64471        31.64649        -0.85252
C         56.41187        30.92649        -0.97463
C         57.62869        33.05858        -0.63877
C         56.36874        33.75739        -0.45786
C         57.57547        35.86250        -0.04585
C         56.38417        35.13824        -0.06082
C         57.56587        37.29496         0.22803
C         56.37641        37.92228         0.58002
C         57.57664        40.19565         0.48691
C         56.30006        39.38998         0.57598
C         57.57550        41.62573         0.87404
C         56.36305        42.30422         1.03238
C         57.53692        44.44374         1.29332
C         56.33811        43.73088         1.19247
C         57.52034        45.83899         1.58119
C         56.28935        46.56244         1.52070
C         57.52281        48.61991         1.99222
C         56.30528        47.98545         1.66187
C         58.83777        25.24920        -1.37326
C         60.07489        27.40388        -1.31140
C         58.85675        26.68677        -1.20774
C         60.08558        28.78075        -1.23162
C         58.87949        29.52000        -1.10247
C         60.08530        31.70590        -0.90723
C         58.88261        30.95556        -0.96164
C         60.06465        33.07300        -0.73655
C         58.84132        33.78067        -0.58654
C         59.99022        35.98160        -0.44609
C         58.81979        35.21509        -0.37647
C         59.98326        37.35417        -0.19265
C         58.80847        38.04064         0.14583
C         60.02193        40.16769         0.64538
C         58.84718        39.45306         0.44143
C         60.01121        41.56784         0.84416
C         58.83391        42.29805         0.94768
C         59.96925        44.40429         1.84535
C         58.87340        43.80808         0.99168
C         59.91170        45.70490         2.20390
C         58.72145        46.50384         1.95674
C         58.69495        47.89016         2.17952
O         25.98103        46.10270        -2.04036
O         56.72694        39.96227        -0.71141
O         40.87667        48.56580        -1.03965
O         56.45672        25.82680         0.38273
O         43.09170        29.26019        -2.41791
O         24.48129        33.49786        -1.99996
O         54.48678        37.44647         2.12748
O         44.98730        20.90161         1.68011
O         55.21366        40.66906         2.43731
O         35.24841        36.75856        -2.41635
O         39.32533        30.67683         1.34961
O         30.76064        41.82306         1.31530
O         39.64735        46.13714         1.72173
O         38.92546        51.92061         1.77535
O         24.75443        44.37875         1.09012
O         54.49097        31.47218        -2.42903
O         51.79698        44.17167         2.59396
O         44.52950        26.75247        -2.42313
O         29.18575        29.92272        -1.76887
O         50.64315        22.64319        -2.63916
O         59.19797        44.20746        -0.39332
H         59.18895        45.18827        -0.41956
O         30.25999        24.25816        -0.76643
H         29.39457        23.80477        -0.85263
O         35.39150        33.54835         1.32455
H         36.18263        33.09843         1.69202
O         26.38290        28.76125        -1.71382
H         25.81306        29.40421        -2.20299
O         50.76512        41.97924        -1.06193
H         50.13957        41.64155        -1.73648
O         44.10985        35.34495        -2.84870
H         44.97624        34.95410        -3.09510
O         27.04567        25.94171         3.40120
H         26.23375        26.44264         3.67251
O         52.84272        48.78097        -0.85932
H         53.70408        49.21783        -1.03563
O         24.69100        27.36442         3.40835
H         24.70354        28.34031         3.50445
O         47.88097        50.40585         2.44200
H         47.10957        50.00396         2.89358
O         47.77483        28.42282        -2.73205
H         47.69162        29.25449        -3.24288
O         47.61996        27.70622         0.83983
H         47.65772        26.86266         1.33738
O         46.15653        22.06780        -2.25217
H         47.00318        21.76995        -2.65007
O         43.81264        37.84576         1.23943
H         44.58012        38.28574         1.66407
O         41.48719        33.72233        -2.95723
H         42.30705        34.16817        -3.27508
O         39.37965        21.27903         2.95117
H         39.45493        20.37262         3.31949
O         28.07884        49.25196        -2.25091
H         28.89439        49.79390        -2.31668
O         40.40262        37.60681        -2.90876
H         41.12491        37.01016        -3.20244
O         38.03884        27.65762         2.29009
H         37.30570        28.22865         2.60512
O         42.37860        27.21343         1.26485
H         41.81215        27.01102         2.03971
O         41.55820        51.16524         2.47092
H         40.72801        51.61892         2.74561
O         32.91475        36.92324         0.96971
H         32.74786        37.72525         1.50799
O         41.83776        26.90445        -2.30703
H         42.39506        27.21786        -3.05477
O         28.97186        38.06450        -2.65544
H         28.87489        37.12778        -2.93653
O         25.88695        35.55347         1.31375
H         25.22940        35.96933         1.91038
O         25.02797        31.02326        -2.21548
H         24.50954        31.75408        -2.63372
O         32.04943        48.26000        -1.80940
H         31.38685        47.80541        -2.37094
O         32.65912        36.25374        -2.63641
H         33.55270        36.53796        -2.95754
O         32.35521        48.55932         1.82229
H         33.06291        48.93634         2.38539
O         53.88514        34.21904        -2.34586
H         54.00039        33.35560        -2.81482
O         34.17616        42.16689         1.81456
H         34.01459        41.22992         2.05439
O         41.30279        16.45354        -0.66853
H         40.45200        16.89071        -0.88658
O         51.06880        37.71023         2.24007
H         51.81115        38.15010         2.70910
O         55.01972        34.97281         1.83832
H         54.59721        35.61765         2.45886
O         48.71687        50.69588        -1.10791
H         49.53007        51.00197        -1.56145
O         50.79512        41.75481         2.57091
H         51.23440        42.33681         3.23242
O         26.21475        35.49406        -2.35609
H         25.47986        34.87740        -2.60304
O         27.14514        39.57670         1.31270
H         26.45064        39.17791         1.87720
O         27.36948        40.22444        -2.28239
H         27.81374        39.45690        -2.72365
O         40.24407        41.98849        -2.36152
H         40.93410        41.42293        -2.77022
H         22.21677        27.21098         1.98308
H         22.08360        29.33314         0.82272
H         22.06745        31.14855         0.50655
H         21.92256        33.48873        -0.00722
H         22.01533        35.42546         0.15579
H         22.10754        37.82114         0.56020
H         21.99638        39.66393         0.10185
H         21.94454        42.10769         0.00859
H         21.86905        44.06217        -0.45894
H         21.90356        46.49075        -0.67252
H         25.56536        23.78372         1.72767
H         23.45000        25.05459         1.75977
H         25.33467        49.88002        -0.81168
H         23.19903        48.66351        -0.69930
H         27.31431        23.00542         2.55596
H         26.93910        50.74120         0.10385
H         29.39255        21.71198         2.39243
H         29.05977        51.86427         0.62247
H         32.97255        19.32843         1.63362
H         30.86578        20.55724         1.68215
H         32.80560        54.10912        -0.25973
H         30.67990        52.90115        -0.21386
H         34.58230        18.37840         1.42435
H         34.42249        54.78372        -1.07314
H         36.69625        17.17264         1.47097
H         36.51626        55.88777        -1.62277
H         40.43693        15.05440         1.76138
H         38.39462        16.35274         2.15563
H         40.37155        57.90932        -2.25566
H         38.21103        56.81179        -1.86261
H         42.88132        14.98507         1.29564
H         42.84934        57.95650        -1.99845
H         44.99325        16.19651         1.14394
H         44.92932        56.88836        -1.23434
H         48.64029        18.23544        -0.21814
H         46.61926        17.03741         0.34048
H         48.54125        55.06421         0.27341
H         46.44987        56.19842        -0.23365
H         50.22242        19.18686        -0.59388
H         50.17061        54.12775         0.84422
H         52.31533        20.34130        -0.90887
H         52.25654        52.90752         1.04249
H         56.04585        22.51657        -1.34979
H         53.92076        21.30422        -1.53196
H         55.93374        50.70380         1.78926
H         53.84337        51.92380         1.56474
H         57.70838        23.46601        -1.58619
H         57.55553        49.70835         2.13410
H         59.78419        24.75110        -1.63108
H         61.01621        26.84941        -1.43389
H         61.04829        29.30605        -1.28118
H         61.05593        31.20034        -0.99317
H         61.02102        33.60996        -0.69239
H         60.94621        35.51134        -0.71015
H         60.93127        37.90258        -0.27396
H         60.99474        39.65777         0.62000
H         60.97803        42.08593         0.90974
H         60.87215        43.81293         2.05672
H         60.75292        46.17930         2.73193
H         59.61639        48.40708         2.48407
