         762
 CSIRO Nanostructure Databank - Neutral Graphene Oxide Data Set
C         24.85054        25.48209         0.91944
C         24.08025        26.35308         1.76656
C         23.16616        27.57116        -0.20164
C         23.33896        27.37981         1.28058
C         22.93686        29.03900        -0.60210
C         21.90052        29.78954         0.13532
C         22.82847        31.97478        -0.56252
C         21.82669        31.14029         0.06882
C         22.76685        33.34966        -0.47847
C         21.58467        34.09458        -0.06746
C         22.73549        36.29067        -0.42005
C         21.52816        35.44765        -0.06265
C         22.76733        37.71419         0.13145
C         21.69103        38.34620         0.71638
C         22.38421        40.74458         0.80918
C         21.65495        39.68081         1.28016
C         22.56488        42.06904         1.41791
C         21.74200        42.58164         2.45405
C         23.12352        44.60680         2.66098
C         21.98037        43.83561         3.00118
C         23.34376        45.95772         3.14985
C         22.44640        46.58694         4.03782
C         23.67069        48.67035         3.84994
C         22.61790        47.92201         4.38589
C         26.13917        23.64807        -0.95958
C         25.90347        24.96043        -1.27103
C         24.96515        25.71382        -0.43891
C         25.31061        27.74022        -1.86054
C         24.29268        26.89619        -0.97984
C         25.26942        29.17676        -1.62337
C         23.98047        29.83457        -1.35093
C         25.30490        32.01802        -1.17810
C         23.94399        31.36234        -1.41450
C         25.30232        33.48838        -1.04563
C         23.97981        34.16608        -0.76755
C         25.29637        36.19898        -0.06869
C         23.98365        35.47149        -0.00003
C         25.29536        37.57772         0.13393
C         24.07229        38.35407         0.06038
C         25.39584        40.38179         0.44170
C         24.19975        39.73748         0.00441
C         25.51360        41.80442         0.52533
C         23.65805        42.87821         1.04859
C         25.33295        44.68564         1.47456
C         24.05238        44.04290         1.74296
C         25.43137        46.04602         1.82371
C         24.45065        46.70404         2.64100
C         25.71847        48.87344         2.43568
C         24.60218        48.08891         2.97558
C         25.83641        50.26850         2.63215
C         27.96563        23.39574        -2.57003
C         27.08233        22.84821        -1.66913
C         27.96834        24.89020        -2.78970
C         26.58446        25.59243        -2.50612
C         27.60501        28.02147        -2.43811
C         26.56634        27.12014        -2.29146
C         27.69488        29.25053        -1.73265
C         26.46769        29.88396        -1.43765
C         27.82242        31.99421        -1.24675
C         26.48210        31.32247        -1.20488
C         27.83096        33.51509        -0.88730
C         26.55073        34.15781        -0.62340
C         27.77779        36.12165         0.20070
C         26.53135        35.47422        -0.13738
C         27.73855        37.48408         0.58621
C         26.52624        38.22198         0.49135
C         27.55740        40.18277         1.64740
C         26.48195        39.59618         0.84675
C         27.68597        41.73908         1.72034
C         26.57534        42.48499         1.07231
C         27.79123        44.58039         1.11659
C         26.55348        43.95011         1.13704
C         27.83766        46.01785         0.91200
C         26.55749        46.81590         1.31696
C         27.86455        48.93483         1.22675
C         26.72757        48.23264         1.67538
C         27.93159        50.33838         1.38016
C         26.89071        50.98615         2.08327
C         30.46385        20.62995        -3.40995
C         29.22487        21.20393        -2.96833
C         30.82315        23.55366        -3.25762
C         28.95217        22.53937        -3.20701
C         30.64729        24.84301        -2.64681
C         29.36965        25.56263        -2.85693
C         30.43613        27.57929        -1.77418
C         29.54547        27.00027        -2.61078
C         30.29363        28.99107        -1.25676
C         28.99919        29.78573        -1.24651
C         30.28752        31.90516        -0.71267
C         29.07062        31.25307        -1.04830
C         30.27039        33.30933        -0.32371
C         29.07101        34.06831        -0.31984
C         30.22992        36.01224         0.65755
C         29.01705        35.39144         0.20508
C         30.15743        37.34781         1.34342
C         28.87653        38.09023         1.23948
C         30.50098        40.35551         2.33152
C         28.66532        39.27066         1.91912
C         30.34471        41.81662         2.21384
C         29.00255        42.48251         1.90398
C         30.29771        44.67029         1.42202
C         29.08957        43.79785         1.09380
C         30.28564        46.05863         1.19828
C         29.09449        46.75242         0.92484
C         30.28782        48.95085         0.64281
C         28.99828        48.20220         0.51825
C         30.26254        50.34498         0.50608
C         29.06144        51.07222         0.80776
C         30.17392        53.09686         0.04009
C         29.05773        52.45223         0.58629
C         33.96304        18.82353        -3.46350
C         33.74618        20.15959        -3.07231
C         31.65892        21.32480        -3.39869
C         32.98214        23.15338        -2.10011
C         31.83808        22.67749        -2.94891
C         33.04976        24.70775        -2.19558
C         31.70091        25.39203        -1.96482
C         32.85259        27.47862        -0.99028
C         31.59588        26.74730        -1.35008
C         32.86557        28.99001        -1.03428
C         31.57440        29.77842        -1.16308
C         32.76174        31.82374        -0.32321
C         31.54275        31.18771        -0.68902
C         32.71281        33.20644         0.04574
C         31.49464        33.94725         0.07923
C         32.70537        36.08579         0.73630
C         31.43966        35.33237         0.50843
C         32.72177        37.49935         1.21510
C         31.43497        38.14026         1.64004
C         32.76852        40.33946         1.44331
C         31.52302        39.63208         1.77575
C         32.80559        41.75838         1.40933
C         31.63413        42.53172         1.88933
C         32.83841        44.62200         1.09423
C         31.60296        44.00104         1.62144
C         32.87228        46.08503         1.13827
C         31.57043        46.82292         1.26406
C         32.78210        48.87042         0.24275
C         31.57092        48.26753         0.84330
C         32.59890        50.21207        -0.35535
C         31.41753        51.02333        -0.00280
C         32.45912        53.05541        -1.10528
C         31.35781        52.39957        -0.27443
C         32.56135        54.54410        -0.94544
C         35.83464        18.70525        -2.00172
C         35.00414        18.08600        -2.93867
C         35.56382        20.02371        -1.53321
C         34.49352        20.84085        -2.07287
C         35.36858        23.22423        -1.28674
C         34.20145        22.33531        -1.67740
C         35.39854        24.65598        -1.36928
C         34.19044        25.39534        -1.50362
C         35.31190        27.43820        -0.73308
C         34.14910        26.75648        -1.13089
C         35.21586        28.82461        -0.19695
C         34.03382        29.67189        -0.45157
C         35.29510        31.70239         0.13111
C         34.03293        31.05237        -0.22811
C         35.29111        33.18141         0.25920
C         33.99330        33.93139         0.25731
C         35.15090        35.92450         1.49373
C         33.92667        35.25995         0.96269
C         35.20482        37.40080         1.83794
C         33.89551        38.17322         1.92323
C         35.19942        40.32404         1.27063
C         33.98816        39.62508         1.43920
C         35.19744        41.70143         0.90573
C         33.98961        42.44204         1.03322
C         35.17870        44.57462         0.33238
C         33.99602        43.89911         0.85951
C         35.22542        45.95030         0.10404
C         34.10718        46.78548         0.59804
C         35.17892        48.79080        -0.40389
C         33.97317        48.17589         0.10654
C         35.14659        50.25435        -0.56845
C         33.84528        50.93685        -0.82245
C         34.98213        53.09426        -1.25190
C         33.81428        52.39713        -0.95277
C         34.95038        54.49894        -1.47889
C         33.72704        55.19763        -1.17269
C         37.94950        15.84394        -0.64720
C         37.01780        16.49831        -1.36923
C         38.12968        18.72835        -0.87647
C         37.05576        17.96570        -1.57118
C         37.84636        20.11817        -0.45839
C         36.54326        20.52253        -0.56726
C         37.73877        23.23880        -0.55392
C         36.43061        22.69724        -0.55128
C         37.81909        24.60985        -0.85722
C         36.60433        25.34040        -1.04262
C         37.78757        27.42424        -0.54948
C         36.57609        26.76172        -0.78724
C         37.78807        28.86789        -0.28532
C         36.51602        29.54339         0.10971
C         37.78780        31.61584         0.62772
C         36.51043        31.01568         0.23763
C         37.81272        33.07698         0.90957
C         36.54302        33.84744         0.76988
C         37.77336        35.96134         1.44148
C         36.46495        35.20189         1.42417
C         37.68234        37.42250         1.22371
C         36.50200        38.15668         1.72204
C         37.74006        40.33795         0.97416
C         36.49587        39.64739         1.49267
C         37.60402        41.67097         0.36110
C         36.40601        42.34545         0.40713
C         37.57783        44.44380        -0.61011
C         36.30237        43.73256        -0.12036
C         37.60178        45.91463        -0.53880
C         36.42452        46.63823        -0.36037
C         37.57270        48.81182        -1.02172
C         36.38921        48.10171        -0.54216
C         37.57662        50.16556        -1.33351
C         36.39235        50.97220        -1.01292
C         37.45815        53.09520        -1.98531
C         36.22656        52.34218        -1.58413
C         37.39381        54.56652        -2.00327
C         36.12039        55.20824        -1.93637
C         37.14885        57.23214        -2.77524
C         36.02691        56.57182        -2.30429
C         40.50276        14.39532         0.16002
C         40.35143        15.81923         0.48027
C         39.03177        16.53031         0.08947
C         40.31601        18.81918         0.40261
C         39.06034        18.01519         0.04467
C         40.33242        20.24675         0.01258
C         38.99861        20.94882         0.01524
C         40.25614        23.11080        -0.64646
C         38.96549        22.46442        -0.18042
C         40.27594        24.60173        -0.75950
C         39.09520        25.29494        -0.85111
C         40.31198        27.36349        -0.37894
C         39.07071        26.79544        -1.05882
C         40.29072        28.69808         0.27408
C         39.06793        29.55452         0.11166
C         40.25122        31.52854         1.17377
C         38.97229        30.90321         0.71477
C         40.28048        32.98655         1.53193
C         38.95260        33.74395         1.69843
C         40.29159        35.93045         1.57506
C         39.02397        35.19060         1.23730
C         40.49545        37.11533         0.67139
C         38.63669        38.10031         0.50366
C         40.16611        40.07998         0.33318
C         38.91325        39.50917         0.56179
C         40.15003        41.57576         0.25519
C         38.86121        42.23414        -0.18466
C         40.16251        44.41098        -0.67558
C         38.87898        43.67742        -0.64072
C         40.16107        45.82541        -0.87201
C         38.90384        46.60950        -0.65836
C         40.07742        48.68527        -1.65694
C         38.86758        48.07658        -1.00860
C         40.07675        50.17295        -1.94964
C         38.74986        50.87702        -1.93117
C         40.10101        53.18632        -2.01070
C         38.79105        52.39722        -2.06297
C         39.91552        54.71326        -1.93098
C         38.58430        55.29767        -2.22059
C         40.29463        57.94730        -2.44974
C         38.40742        56.61415        -2.72978
C         40.57217        59.31888        -2.50938
C         42.90008        14.57852         0.37862
C         41.73228        13.81216         0.10878
C         42.83322        15.94692         0.60492
C         41.57582        16.65532         0.57115
C         42.80245        18.79541         0.30820
C         41.57263        18.05633         0.50770
C         42.77915        20.15697        -0.03742
C         41.53657        20.89409        -0.16327
C         42.83374        23.05598        -0.57182
C         41.55612        22.32492        -0.60737
C         42.86995        24.49999        -0.86989
C         41.58454        25.27979        -0.99883
C         42.86530        27.38631        -0.23955
C         41.62611        26.81731        -0.91914
C         42.86868        28.70576         0.18183
C         41.59606        29.36765         0.56801
C         42.81202        31.61796         0.72881
C         41.56827        30.80929         0.94709
C         42.80591        33.07963         1.02869
C         41.54218        33.76672         1.39060
C         42.81971        35.89475         1.50807
C         41.55658        35.11600         1.49248
C         42.79796        37.38887         1.29040
C         41.53062        37.99378         0.79895
C         42.68502        40.08142         0.31457
C         41.46165        39.38717         0.37900
C         42.68715        41.51272        -0.10779
C         41.42498        42.31979         0.03039
C         42.61031        44.36623        -0.74473
C         41.40933        43.71002        -0.52665
C         42.56798        45.66301        -1.51146
C         41.35532        46.49711        -1.12041
C         42.61760        48.70520        -1.35557
C         41.34961        47.91442        -1.57847
C         42.62724        50.17403        -1.86393
C         41.31895        50.96781        -1.75346
C         42.56597        52.93754        -1.09853
C         41.34402        52.35285        -1.66669
C         42.70781        54.27954        -0.83231
C         40.91347        55.62424        -1.69663
C         41.85388        57.67446        -0.62677
C         40.91636        57.09492        -1.52360
C         42.11174        59.05092        -0.64524
C         41.49397        59.85777        -1.60793
C         45.23949        16.07999         1.23302
C         44.05239        16.71171         0.81310
C         45.30676        18.77903         0.49304
C         44.06178        18.10067         0.52549
C         45.37230        20.12244        -0.11230
C         44.05143        20.80937        -0.43295
C         45.42166        23.00819        -0.67866
C         44.08161        22.28841        -0.69597
C         45.41182        24.51600        -0.63722
C         44.11727        25.25748        -0.56072
C         45.31252        27.30726         0.20895
C         44.09012        26.60980        -0.28171
C         45.30471        28.77838         0.31090
C         44.10199        29.45082         0.42325
C         45.28434        31.57658         0.91522
C         44.10404        30.87970         0.70549
C         45.31202        32.97566         1.50306
C         44.08155        33.80061         1.23877
C         45.31152        35.95794         1.23068
C         44.09818        35.17668         1.33425
C         45.29132        37.33417         0.94892
C         44.03856        38.06016         0.86186
C         45.23738        40.15496         0.48418
C         43.95413        39.39512         0.47512
C         45.23476        41.62548         0.25844
C         43.96559        42.28199        -0.20380
C         45.18612        44.53217        -0.50440
C         43.89886        43.78186        -0.31249
C         45.19245        45.85304        -1.20133
C         43.89049        46.46659        -1.61335
C         45.16716        48.72588        -1.76069
C         43.87140        47.95954        -1.83597
C         45.12335        50.12131        -1.24971
C         43.80745        50.82873        -1.16704
C         45.06881        52.86851        -0.54476
C         43.74881        52.12615        -0.77332
C         44.93224        54.09460         0.32476
C         43.64946        54.84497         0.14172
C         44.76847        56.91928         0.84076
C         43.63299        56.29579         0.41194
C         46.43133        16.78049         1.29930
C         47.77421        18.82925         0.77927
C         46.49964        18.12395         0.86759
C         47.81512        20.21186         0.44074
C         46.62012        20.91635         0.03916
C         47.87731        23.02076         0.02715
C         46.64976        22.29002        -0.20777
C         47.90898        24.43532         0.05438
C         46.68696        25.20193        -0.28052
C         47.90134        27.30091         0.36445
C         46.61970        26.58767         0.25419
C         47.90594        28.75726         0.36338
C         46.57149        29.51816         0.33050
C         47.74623        31.59382         1.01566
C         46.55318        30.91998         0.78467
C         47.77512        33.04083         1.15541
C         46.58662        33.72978         1.24266
C         47.76193        35.81823         0.66336
C         46.61576        35.22877         1.46559
C         47.73411        37.26560         0.29730
C         46.51440        38.05333         0.58668
C         47.73560        40.10678        -0.09598
C         46.52126        39.41042         0.35070
C         47.73856        41.48044        -0.29727
C         46.54401        42.32307         0.00797
C         47.76265        44.45255        -0.81713
C         46.50337        43.79603        -0.31486
C         47.64380        45.71138        -1.67375
C         46.37795        46.51291        -1.36693
C         47.62255        48.64902        -1.06516
C         46.47837        47.94811        -1.83716
C         47.58731        49.87942        -0.45082
C         46.27873        50.60035        -0.41608
C         47.44519        52.71092         0.44375
C         46.20895        52.02468        -0.00291
C         47.38869        54.08663         0.80184
C         46.14291        54.85524         0.68407
C         46.01746        56.20093         0.94306
C         50.20720        18.80393         0.97926
C         48.98384        18.15389         1.03490
C         50.28113        20.18485         0.70912
C         49.06983        20.89379         0.45979
C         50.32576        23.01919         0.39356
C         49.09785        22.31522         0.28526
C         50.33211        24.44904         0.43789
C         49.08914        25.14566         0.36176
C         50.32099        27.29137         0.76554
C         49.09296        26.59125         0.49702
C         50.30218        28.71263         1.01221
C         49.09417        29.42492         0.88782
C         50.30247        31.60406         1.40270
C         48.98860        30.83382         1.23592
C         50.28393        33.04765         1.11485
C         49.06112        33.74387         1.05632
C         50.25490        35.81797         0.45271
C         49.06735        35.13113         0.76369
C         50.23148        37.23234         0.08591
C         49.01472        37.96333         0.05715
C         50.19765        39.95970        -0.67930
C         48.98447        39.34438        -0.25118
C         50.18063        41.34038        -1.22032
C         48.90388        42.13188        -0.94759
C         50.14983        44.25810        -1.70377
C         48.99193        43.62631        -0.98894
C         50.21278        45.72652        -1.47985
C         48.95492        46.49877        -1.58284
C         50.07992        48.48642        -0.42714
C         48.91196        47.94577        -1.17031
C         50.03556        49.89659         0.05469
C         48.78111        50.53687         0.14231
C         49.56282        52.53040         1.52089
C         48.60429        51.91167         0.68195
C         49.56493        53.89660         1.82339
C         48.50765        54.69146         1.40960
C         52.78723        20.20395         0.78416
C         51.55194        20.88474         0.67695
C         52.80756        22.99388         0.50033
C         51.57011        22.29843         0.52712
C         52.83279        24.47513         0.21603
C         51.54715        25.17453         0.55874
C         52.79183        27.27749         1.00969
C         51.54935        26.57468         0.77363
C         52.77954        28.67532         1.22579
C         51.54290        29.41662         1.22798
C         52.74519        31.58161         1.22003
C         51.55164        30.84344         1.25623
C         52.75280        32.99920         1.01016
C         51.50916        33.72011         0.87152
C         52.72209        35.76453         0.19985
C         51.49337        35.10498         0.51619
C         52.71266        37.15788        -0.21666
C         51.44638        37.89095        -0.25641
C         52.60816        39.87495        -1.35418
C         51.40817        39.24505        -0.66773
C         52.66494        41.39959        -1.26674
C         51.47587        42.07277        -1.41788
C         52.71742        44.31502        -2.07800
C         51.43125        43.49824        -1.84729
C         52.67664        45.72292        -1.44863
C         51.40381        46.38249        -1.27526
C         52.62145        48.50969        -0.60113
C         51.37530        47.73387        -0.63552
C         52.58774        49.84379        -0.11016
C         51.36004        50.41759         0.40676
C         52.75625        52.16244         1.47636
C         51.54656        51.46116         1.32401
C         53.98888        20.88727         0.72951
C         55.29411        23.02717         0.53544
C         54.02366        22.29396         0.57149
C         55.28452        24.45246         0.72753
C         54.06481        25.16807         0.73851
C         55.26903        27.24112         1.29865
C         54.03742        26.55007         1.02349
C         55.22408        28.66408         1.51255
C         54.02346        29.36633         1.43402
C         55.26932        31.62244         1.37366
C         53.99575        30.85282         1.50558
C         55.25509        33.02836         0.89864
C         53.97132        33.71231         0.81394
C         55.20503        35.69034        -0.04527
C         53.93053        35.05198         0.34400
C         55.19959        37.12788        -0.46620
C         53.89631        37.81426        -0.51129
C         55.15904        40.02685        -0.72107
C         53.92048        39.21250        -0.98030
C         55.11524        41.50943        -0.79871
C         53.94091        42.11373        -1.23175
C         55.21684        44.31908        -1.37661
C         53.98205        43.53337        -1.68260
C         55.14538        45.80262        -1.33256
C         53.84713        46.46206        -1.31525
C         55.02847        48.64776        -0.95096
C         53.82430        47.88220        -0.96213
C         55.03895        49.97763        -0.51115
C         53.82605        50.55947         0.00788
C         53.86361        51.76853         0.74959
C         57.73090        23.08293         0.48901
C         56.51546        22.37614         0.39739
C         57.75486        24.44114         0.76840
C         56.52288        25.15248         0.90986
C         57.78023        27.21025         1.46827
C         56.50594        26.54215         1.21524
C         57.75330        28.60876         1.86924
C         56.53115        29.38375         1.50940
C         57.76515        31.71187         1.34584
C         56.54939        30.86045         1.28213
C         57.73361        32.95735         0.56648
C         56.43624        33.66764         0.59857
C         57.73354        35.83071         0.15005
C         56.45351        35.17141         0.62145
C         57.65420        37.28167        -0.01821
C         56.43912        37.89930        -0.21449
C         57.52628        40.15481         0.29850
C         56.30206        39.35522        -0.02754
C         57.47734        41.61577         0.04082
C         56.35185        42.23656        -0.49300
C         57.52961        44.40809        -0.57607
C         56.38412        43.67557        -0.72636
C         57.56470        45.90511        -0.64949
C         56.30185        46.51151        -1.19838
C         57.60123        48.73163        -1.23443
C         56.29312        47.98199        -1.31743
C         57.49921        50.12113        -0.75616
C         56.30536        50.68803        -0.45175
C         60.06140        24.98490        -0.15213
C         59.09196        25.10410         1.00487
C         60.29537        27.23390         1.62380
C         58.98681        26.55447         1.39711
C         60.26117        28.65260         2.26149
C         58.88174        29.15567         2.41090
C         60.22739        31.89561         1.64785
C         58.92017        31.36240         1.96015
C         60.27180        33.14532         1.01856
C         59.01922        33.72845         0.46101
C         60.21062        35.88893        -0.23098
C         58.93711        35.19269         0.19733
C         60.14169        37.39348         0.00811
C         58.88959        38.05275         0.10188
C         60.02746        40.21101         0.36612
C         58.83728        39.45971         0.27645
C         59.95774        41.64954         0.85920
C         58.67630        42.38409         0.44382
C         60.03818        44.50496        -0.23057
C         58.74029        43.82647         0.01645
C         60.08775        45.76743        -0.79127
C         58.83787        46.46556        -1.31254
C         60.09229        48.60786        -1.08513
C         58.88768        47.98002        -1.13271
C         61.19092        25.78528        -0.17440
C         61.39423        26.80998         0.76131
C         61.35705        29.65659         2.13209
C         61.35788        31.00993         1.91915
C         61.45811        33.95972         0.87531
C         61.43190        35.22087         0.37638
C         61.30539        38.16683         0.02340
C         61.25230        39.54879         0.22461
C         61.19739        42.46629         0.56566
C         61.22119        43.75023         0.14508
C         61.32760        46.50121        -0.92966
C         61.32447        47.85611        -1.07361
O         43.89093        53.99803         1.32898
O         40.62763        48.01477        -2.85203
O         24.14038        27.03472        -2.38718
O         42.26633        24.82674        -2.21195
O         35.99446        50.95728         0.40384
O         47.36752        29.33701        -0.90028
O         36.59529        43.90219        -1.54346
O         56.56373        39.76282         1.35766
O         45.34966        49.86590        -2.67179
O         37.41439        40.33334         2.40726
O         37.12403        35.44065         2.67993
O         44.78958        20.08610        -1.46445
O         31.64880        47.85502         2.28674
O         45.80740        50.96516         0.92823
O         36.01165        37.70687         3.02068
O         39.51231        52.75935        -3.27549
O         49.18385        47.56333        -2.56328
O         32.89771        37.22604        -0.20120
O         28.57356        25.28031        -4.04427
O         38.84703        42.55897        -1.60546
O         22.84046        29.23099        -2.05595
O         56.94597        48.48447        -2.54992
O         29.49269        29.03010        -0.03518
O         39.22294        18.58460         1.36047
O         58.84054        30.42246         2.99300
O         54.93444        39.40520        -2.03713
O         55.33722        36.02463        -1.44671
O         38.58755        29.60050        -1.29700
O         46.72286        43.34202         1.04804
O         50.49946        43.70405        -2.98903
O         40.83160        42.24001         1.37232
O         41.72268        29.79199         1.97952
O         42.68715        32.56087        -0.39071
O         42.35918        56.89166         0.42245
O         38.89717        21.87205         1.15260
O         60.62702        27.47936         3.04459
O         23.10012        40.51990        -0.39407
O         28.65182        27.78776        -3.31816
O         47.43912        45.32554        -3.00753
O         36.13433        21.58572         0.22230
O         37.54857        33.84404        -0.31469
O         39.51120        37.33981        -0.28916
O         40.76744        22.48545        -1.87236
O         33.04731        22.54275        -0.78237
O         50.62386        47.62988         0.63954
O         30.76792        37.37377         2.67670
O         58.43757        43.46413         1.43449
O         40.31967        31.96030         2.58546
O         45.80818        26.69298         1.48849
O         47.43045        36.19879        -0.70412
O         29.48075        39.66015         2.98412
O         39.27980        50.31538        -3.17697
O         27.17062        40.96322         2.83214
O         49.18011        41.54229        -2.25965
O         50.51112        51.76544         2.20970
O         42.23585        55.26357        -1.66014
O         40.14061        27.45769         1.05826
O         31.93449        43.46906         2.97698
O         34.24663        35.16567         2.38600
O         32.00218        26.89104         0.05336
O         32.79541        20.71556        -3.91388
O         33.89621        46.61605         2.03775
O         44.84571        22.56332        -1.94077
O         38.28956        18.42300        -2.29359
O         34.82544        33.90227        -0.94728
O         46.29460        25.08584        -1.68674
O         58.48276        32.95710        -0.70179
O         39.13737        47.64197         0.37600
O         44.46271        44.57379         0.78538
O         27.92673        33.02817        -2.26744
O         29.54425        42.49447         3.23208
O         55.01701        43.73157        -2.70767
O         26.86418        46.50741        -0.08220
O         35.77053        28.88861         1.17412
O         43.37601        41.68249        -1.40203
O         29.82455        23.14232        -4.15273
O         24.46434        42.53713        -0.05081
O         42.86495        36.85120         2.64533
O         36.55004        52.47823        -2.99385
O         45.19094        41.11497         1.62471
O         54.66180        31.44455         2.69961
O         39.42190        57.36622        -3.36190
O         56.66133        29.96621         0.11862
O         43.86962        47.07840        -2.97252
O         39.26233        16.04301         1.43821
O         32.43719        29.54551        -2.32928
O         24.52028        34.20249        -2.09372
O         32.98107        50.24816        -1.79446
O         48.77951        44.41122         0.22875
O         49.54292        31.17531         2.56914
O         41.72546        27.32900        -2.26971
H         42.10582        26.60488        -2.82432
O         52.39777        39.59517        -2.76346
H         53.26975        39.69452        -3.20909
O         33.51528        38.23091         3.30949
H         34.34318        38.26122         3.84239
O         40.11641        36.45177         2.92173
H         39.69465        35.74394         3.46089
O         38.67641        33.72242         3.11639
H         39.08446        32.90064         3.48270
O         46.91718        35.39669         2.89443
H         46.55387        36.25800         3.19291
O         46.80430        47.89691        -3.23502
H         47.08790        46.96402        -3.46740
O         56.30568        35.55684         2.02754
H         57.10312        35.26983         2.51953
O         23.83101        35.10261         1.40075
H         23.86848        35.92188         1.93815
O         32.05457        52.80267        -2.49670
H         32.17864        51.83463        -2.65248
O         29.29078        43.30911        -0.28279
H         29.14598        44.06208        -0.89549
O         33.33618        24.90399        -3.62469
H         33.46599        25.86146        -3.79200
O         21.94760        26.87454        -0.59032
H         21.87871        26.96354        -1.56679
O         42.24009        45.21760        -2.86581
H         42.47395        45.95996        -3.47471
O         52.82321        44.56745        -3.49051
H         51.90989        44.54279        -3.86326
O         59.91270        41.51190         2.30835
H         59.50956        42.34329         2.65005
O         57.61668        46.36760         0.74497
H         57.53959        45.58933         1.33924
O         25.77809        25.25640        -3.64644
H         26.27624        25.52043        -4.44956
O         45.29951        32.76014         2.96488
H         45.71734        33.54880         3.38149
O         28.69729        48.23635        -0.92473
H         27.85239        47.73158        -1.03591
O         39.10864        27.05330        -2.47968
H         39.10430        28.03087        -2.59897
O         52.93800        24.59598        -1.25768
H         52.15480        24.14947        -1.64518
O         42.75101        48.80299         0.08732
H         42.54768        47.93574         0.49911
O         22.79327        36.41865        -1.85990
H         22.04338        36.97559        -2.15341
O         23.60807        31.68580        -2.78771
H         22.92203        31.04070        -3.07101
O         60.33603        35.71168        -1.67537
H         60.07921        34.78838        -1.88649
O         45.47809        53.35967        -1.85101
H         45.43236        52.61775        -2.49324
O         58.76243        46.22018        -2.73692
H         58.11532        46.86670        -3.10827
O         42.88210        50.14303        -3.28276
H         42.10504        49.73790        -3.72630
O         59.71025        24.37210         2.11527
H         60.46997        24.90431         2.43586
H         25.41545        24.66546         1.38912
H         24.13429        26.18811         2.85205
H         22.76708        28.02562         1.96249
H         21.15528        29.21764         0.70613
H         21.02225        31.64449         0.62342
H         20.66696        33.52992         0.15476
H         20.56556        35.93588         0.15217
H         20.78531        37.74614         0.90281
H         20.96698        39.83935         2.12448
H         20.86635        42.00564         2.78567
H         21.26313        44.22645         3.73524
H         21.59921        46.02852         4.45752
H         23.76652        49.72492         4.14002
H         21.91222        48.40014         5.07892
H         25.56647        23.17078        -0.15192
H         25.07148        50.81359         3.20094
H         27.10466        21.76853        -1.46782
H         26.92859        52.07477         2.22898
H         30.50153        19.54979        -3.61585
H         28.49889        20.55909        -2.45196
H         30.10187        54.17469        -0.15525
H         28.16004        53.04555         0.80941
H         33.31660        18.40780        -4.24661
H         31.65377        55.13025        -0.74774
H         35.20674        17.06653        -3.29016
H         33.73733        56.29498        -1.11507
H         37.85677        14.75707        -0.51025
H         36.19122        15.92908        -1.81915
H         37.07225        58.25038        -3.17743
H         35.05873        57.08689        -2.30573
H         39.59457        13.78916         0.04337
H         40.08870        59.94679        -3.26759
H         43.87261        14.06952         0.36970
H         41.83099        12.73911        -0.10473
H         42.81703        59.48398         0.07530
H         41.72487        60.93112        -1.64423
H         45.22407        15.02226         1.52768
H         44.75533        57.98789         1.09279
H         47.33042        16.25728         1.64815
H         46.89748        56.79046         1.23530
H         51.11896        18.22586         1.17741
H         48.97819        17.08266         1.27229
H         50.37599        54.30912         2.43699
H         48.49570        55.75714         1.67097
H         52.80847        19.11224         0.89905
H         52.80642        53.00860         2.17354
H         54.92539        20.32004         0.81495
H         54.79713        52.33557         0.85143
H         58.67806        22.53459         0.39105
H         56.55243        21.29187         0.22530
H         58.42174        50.70005        -0.60317
H         56.30698        51.73118        -0.10742
H         59.95029        24.16390        -0.87543
H         60.15687        49.70539        -1.05594
H         61.97514        25.58967        -0.92128
H         62.35897        27.33165         0.81685
H         62.35503        29.20326         2.25104
H         62.35492        31.47427         1.84508
H         62.41232        33.55050         1.24121
H         62.38660        35.76332         0.30996
H         62.28835        37.69324        -0.10237
H         62.19588        40.10643         0.28517
H         62.15530        42.00662         0.85017
H         62.20043        44.24018         0.04563
H         62.28750        45.97389        -0.84021
H         62.27380        48.40666        -1.13032
