         620
 CSIRO Nanostructure Databank - Neutral Graphene Oxide Data Set
C         23.70295        27.02568         2.22741
C         23.72111        28.39560         2.43983
C         23.75368        31.32575         2.75558
C         23.75355        32.75419         2.89704
C         23.59637        35.70116         2.80044
C         23.57877        37.08657         2.84863
C         23.57336        39.99726         3.04822
C         23.56917        41.37049         3.15938
C         23.53043        44.29524         3.26615
C         23.51519        45.67594         3.33803
C         25.78991        24.30961         0.75727
C         24.77898        24.95856         1.38166
C         25.82197        27.18802         1.03563
C         24.74770        26.40047         1.51721
C         25.88297        28.57066         1.31075
C         24.80393        29.19088         2.00185
C         26.08118        31.39857         1.94829
C         24.80944        30.63114         2.21613
C         25.79869        32.83863         1.57071
C         24.72650        33.53891         2.31975
C         25.83937        35.73881         1.84055
C         24.71164        34.99304         2.30826
C         25.84011        37.16769         1.94322
C         24.69350        37.85061         2.43970
C         25.83487        40.04210         2.13111
C         24.69779        39.29973         2.53504
C         25.84002        41.47127         2.26491
C         24.69433        42.14141         2.77411
C         25.87047        44.31427         2.53868
C         24.68983        43.58437         2.86252
C         25.83681        45.72654         2.63336
C         24.67521        46.41636         3.01821
C         25.70154        48.61194         2.60163
C         24.67947        47.87307         3.08651
C         28.16531        22.97427        -0.42003
C         28.10962        24.38533        -0.36351
C         26.83911        25.04847         0.02722
C         28.12082        27.28446        -0.03711
C         26.85724        26.55772         0.19461
C         28.14918        28.67475         0.20576
C         27.02868        29.35122         0.83373
C         28.18872        31.50796         0.56057
C         27.06994        30.72374         1.02752
C         28.18139        32.91430         0.64751
C         26.94748        33.63280         1.02796
C         28.16529        35.78781         1.00383
C         26.99120        35.08108         1.29784
C         28.18597        37.23666         1.14842
C         27.00338        37.91662         1.56160
C         28.13914        40.06903         1.21056
C         27.00258        39.34383         1.63719
C         28.07164        41.54291         1.16038
C         26.98557        42.23743         1.86489
C         28.30351        44.34655         1.84381
C         27.05296        43.62784         2.05578
C         28.35159        45.81240         2.12237
C         27.06893        46.51449         2.41584
C         28.01360        48.64650         1.31408
C         26.86437        47.93402         1.97479
C         28.06147        50.12944         1.34007
C         30.44143        23.05090        -1.26011
C         29.29474        22.32137        -0.87437
C         30.43547        24.46998        -1.13683
C         29.24045        25.14700        -0.71789
C         30.40827        27.34160        -0.89605
C         29.24991        26.60504        -0.57175
C         30.45872        28.73940        -0.66933
C         29.32172        29.41622        -0.12765
C         30.49612        31.57667        -0.33038
C         29.33842        30.83461         0.02830
C         30.49691        33.00441        -0.22935
C         29.31094        33.68779         0.25261
C         30.44527        35.89156         0.02155
C         29.28678        35.08895         0.43365
C         30.64012        37.17029         0.80785
C         29.36090        37.97767         0.88298
C         30.54461        40.16331         0.56841
C         29.34344        39.39408         0.86924
C         30.57602        41.54460         0.60091
C         29.35304        42.33216         0.86708
C         30.78567        44.36695         1.45479
C         29.44610        43.70928         1.38772
C         30.79380        45.93092         1.51641
C         29.46977        46.61006         1.53198
C         30.42970        48.68697         0.55241
C         29.31486        47.91957         1.17223
C         30.35333        50.19822         0.41773
C         29.13899        50.84317         0.97221
C         32.53072        20.49305        -3.03128
C         31.48842        21.05965        -2.31426
C         32.81033        23.10696        -1.99446
C         31.59310        22.38720        -1.83356
C         32.82182        24.53152        -1.76706
C         31.62497        25.19840        -1.44633
C         32.85941        27.39191        -1.52476
C         31.53322        26.68686        -1.65839
C         32.87436        28.77921        -1.28761
C         31.66351        29.47826        -0.93070
C         32.89635        31.61995        -0.93536
C         31.68052        30.88437        -0.75064
C         32.89514        33.03667        -0.81405
C         31.67409        33.71763        -0.53949
C         32.96738        35.89611        -0.48956
C         31.67584        35.18293        -0.49130
C         33.00584        37.27535        -0.24874
C         31.87441        37.96052         0.40939
C         32.96095        40.16978        -0.27202
C         31.82935        39.45607         0.35886
C         32.96365        41.60426        -0.14318
C         31.81685        42.26387         0.40891
C         33.24977        44.09502         0.93151
C         31.94235        43.58739         0.90242
C         33.24813        46.25846         1.03210
C         31.93335        46.77017         1.05204
C         32.90810        48.83268         0.17482
C         31.76493        48.07113         0.55914
C         32.85061        50.26893         0.08053
C         31.62374        50.96523         0.27159
C         32.82542        53.08115         0.08384
C         31.63853        52.36595         0.26608
C         35.74059        18.70882        -3.19030
C         35.70569        20.10883        -3.19972
C         33.73755        21.19677        -3.14227
C         35.27912        23.06204        -2.47484
C         33.96554        22.43619        -2.51657
C         35.23718        24.54416        -2.44900
C         34.02627        25.27353        -2.03601
C         35.31427        27.40153        -1.83199
C         34.05894        26.67964        -1.83254
C         35.33027        28.81712        -1.60061
C         34.10958        29.51016        -1.36192
C         35.34632        31.64733        -1.27737
C         34.11642        30.92377        -1.20024
C         35.34067        33.07284        -1.17100
C         34.12338        33.76915        -0.96478
C         35.37508        35.92065        -0.96050
C         34.15055        35.19458        -0.82383
C         35.36494        37.34453        -0.92113
C         34.17022        38.02493        -0.57242
C         35.27234        40.17202        -1.19173
C         34.10764        39.46537        -0.62961
C         35.27942        41.70392        -1.10872
C         34.15447        42.32727        -0.41124
C         35.45439        44.44797        -0.24803
C         34.31214        43.63002         0.11956
C         35.34010        45.94057        -0.35751
C         34.24495        46.77188         0.20726
C         35.30949        48.91521        -0.40772
C         34.13631        48.16319        -0.09729
C         35.31230        50.29848        -0.25451
C         34.06768        50.99900        -0.07215
C         35.32066        53.14103        -0.20167
C         34.05363        52.42066        -0.08056
C         35.38688        54.50813        -0.42227
C         37.78487        18.80198        -1.89759
C         36.74793        18.05735        -2.49556
C         37.76245        20.22866        -1.95571
C         36.63346        20.91512        -2.50642
C         37.73054        23.09071        -2.04242
C         36.51366        22.37521        -2.41023
C         37.77519        24.51892        -2.04887
C         36.56846        25.29930        -2.35036
C         37.77399        27.40694        -1.86017
C         36.53628        26.71954        -1.96953
C         37.80405        28.82594        -1.74368
C         36.56560        29.53218        -1.60188
C         37.81922        31.66232        -1.39491
C         36.57546        30.94686        -1.43645
C         37.80130        33.06435        -1.27124
C         36.57920        33.79211        -1.21756
C         37.83348        35.94905        -1.23391
C         36.59790        35.21414        -1.14183
C         37.82063        37.38076        -1.27679
C         36.58851        38.08053        -1.15802
C         37.77553        40.22331        -1.46474
C         36.57366        39.48818        -1.25762
C         37.76344        41.69095        -1.44022
C         36.57423        42.40932        -1.14389
C         37.71614        44.60767        -1.32157
C         36.54194        43.82108        -0.89635
C         37.80161        46.03866        -0.97586
C         36.52133        46.74082        -0.89391
C         37.83150        48.87802        -0.41141
C         36.55662        48.26054        -0.93584
C         37.83221        50.27092        -0.15061
C         36.57775        51.01285        -0.16784
C         37.78965        53.16009         0.20578
C         36.55327        52.39969        -0.06365
C         37.80843        54.60250        -0.09746
C         36.62918        55.21259        -0.43634
C         39.96452        16.10306        -0.36128
C         38.88078        16.74866        -0.99232
C         40.09279        18.87932        -0.99216
C         38.91517        18.11952        -1.29587
C         40.09162        20.27053        -1.07131
C         38.90317        20.97676        -1.49948
C         40.02851        23.14339        -0.95996
C         38.88590        22.38009        -1.59838
C         40.17593        24.54495        -1.46509
C         38.97332        25.23383        -1.80237
C         40.22322        27.36702        -1.91959
C         38.99609        26.67363        -1.88213
C         40.26379        28.78143        -1.90995
C         39.04807        29.51427        -1.77088
C         40.27744        31.63803        -1.65678
C         39.06913        30.94995        -1.58013
C         40.35895        33.04908        -1.28804
C         39.05243        33.80789        -1.08402
C         40.29782        35.97686        -1.33041
C         39.06436        35.26841        -1.24687
C         40.29256        37.39463        -1.43694
C         39.03691        38.10916        -1.44127
C         40.25757        40.24164        -2.00996
C         39.00035        39.52103        -1.57045
C         40.25570        41.70863        -1.62998
C         39.01276        42.37539        -1.49363
C         40.27670        44.54185        -1.26718
C         39.01931        43.84247        -1.55188
C         40.24036        45.90887        -0.73524
C         38.99188        46.70157        -0.76052
C         40.27914        48.81645        -0.34229
C         39.02446        48.12691        -0.46160
C         40.28186        50.23069        -0.12170
C         39.08322        50.94342         0.02890
C         40.34581        53.18023        -0.01851
C         39.10946        52.40749         0.29094
C         40.33362        54.54133        -0.20279
C         39.10209        55.35012         0.19337
C         40.23962        57.34026        -0.79866
C         39.11874        56.75909        -0.33390
C         42.28309        16.13879         0.48130
C         41.17034        16.75916        -0.15766
C         42.49079        18.90783        -0.18210
C         41.37575        18.10963        -0.79614
C         42.50142        20.31108        -0.35796
C         41.31966        21.01005        -0.79098
C         42.55765        23.13249        -0.74985
C         41.33827        22.40193        -0.89990
C         42.62670        24.52809        -1.08069
C         41.41236        25.18450        -1.48011
C         42.78482        27.31670        -1.87906
C         41.46710        26.57795        -1.95871
C         42.74156        28.79350        -1.88713
C         41.54481        29.47113        -1.97596
C         42.80687        31.73605        -2.08499
C         41.50959        30.95169        -2.08988
C         42.80036        33.16270        -1.67933
C         41.58760        33.83760        -1.50400
C         42.77242        35.97649        -1.35583
C         41.55020        35.25722        -1.37149
C         42.76383        37.41147        -1.34499
C         41.53317        38.11335        -1.46131
C         42.74842        40.23952        -1.63888
C         41.54833        39.53742        -1.62472
C         42.71103        41.69750        -2.09251
C         41.45986        42.42647        -1.63937
C         42.74989        44.54775        -1.24935
C         41.47788        43.83660        -1.37004
C         42.79523        45.99441        -1.07759
C         41.57077        46.67924        -0.62487
C         42.72160        48.86305        -0.76253
C         41.50539        48.13641        -0.57381
C         42.78860        50.22887        -0.50789
C         41.58767        50.92579        -0.03335
C         42.84427        53.12667        -0.53095
C         41.62506        52.44053        -0.03842
C         42.78014        54.53798        -0.77541
C         41.54613        55.23987        -0.60946
C         42.66855        57.29329        -1.31297
C         41.49670        56.61912        -0.89975
C         43.44634        16.82526         0.72049
C         44.72840        18.97891         0.82828
C         43.57129        18.23813         0.43838
C         44.79720        20.38488         0.55788
C         43.67070        21.05531        -0.02173
C         44.93368        23.18020        -0.06707
C         43.72124        22.45435        -0.28116
C         45.03942        24.54406        -0.47894
C         43.87113        25.22993        -1.00932
C         45.16498        27.34941        -1.14384
C         43.96682        26.61943        -1.33028
C         45.22988        28.75358        -1.34024
C         44.05711        29.47239        -1.89007
C         45.28994        31.69505        -1.49217
C         44.10127        30.98536        -1.99539
C         45.26765        33.11673        -1.42345
C         44.03176        33.85381        -1.51705
C         45.23488        35.97903        -1.12760
C         44.01234        35.26643        -1.34014
C         45.22513        37.42921        -1.05587
C         43.99402        38.13295        -1.26236
C         45.23958        40.24915        -1.30612
C         43.99865        39.55548        -1.40428
C         45.28552        41.70949        -1.51719
C         44.00789        42.45928        -1.80834
C         45.15775        44.63157        -0.94819
C         43.93858        43.86606        -1.39418
C         45.22705        45.95829        -1.76419
C         43.93312        46.74216        -1.40074
C         44.92173        49.01878        -1.74036
C         43.87914        48.17018        -1.30306
C         45.20047        50.29362        -1.23078
C         44.11450        50.95000        -0.40465
C         45.24061        53.10761        -1.07575
C         44.02683        52.42571        -0.72608
C         45.21819        54.51765        -1.24215
C         43.96430        55.23505        -1.15402
C         43.87476        56.62595        -1.41979
C         46.92811        19.04714         1.89858
C         45.84217        18.34386         1.48166
C         47.03568        20.48233         1.64675
C         45.95411        21.13632         0.89150
C         47.30259        23.20244         0.59103
C         46.05988        22.50918         0.50593
C         47.41911        24.53871         0.14603
C         46.27951        25.20965        -0.37203
C         47.59337        27.37385        -0.43680
C         46.45281        26.56603        -1.00784
C         47.55940        28.77726        -0.57413
C         46.41724        29.49214        -1.04751
C         47.62448        31.69536        -0.81737
C         46.44828        30.95609        -1.12912
C         47.69248        33.10435        -0.95298
C         46.46956        33.83679        -1.18359
C         47.68680        35.94117        -0.68971
C         46.43481        35.24997        -1.05134
C         47.67432        37.43939        -0.57456
C         46.41613        38.15553        -0.84466
C         47.66624        40.32011        -0.71598
C         46.43615        39.57711        -0.95332
C         47.68190        41.70608        -0.74254
C         46.46456        42.45551        -1.01237
C         47.64998        44.54267        -0.51967
C         46.43029        43.81859        -0.89656
C         47.66969        46.02945        -0.80754
C         46.53752        46.68788        -1.46958
C         47.82888        48.83297        -1.54702
C         46.76134        47.95729        -1.95287
C         47.73379        50.23167        -1.42243
C         46.46762        50.93995        -1.32656
C         47.69865        53.09381        -1.30138
C         46.48071        52.38158        -1.19139
C         47.65002        54.50754        -1.44391
C         46.45285        55.19053        -1.45717
C         49.68610        20.42242         1.85245
C         48.42456        21.15643         1.64695
C         49.85969        23.16840         0.98807
C         48.52310        22.43448         0.89519
C         49.79438        24.62519         0.86555
C         48.67387        25.26117         0.34369
C         49.93223        27.39075         0.39678
C         48.71397        26.69575         0.12327
C         50.03074        28.78914        -0.04389
C         48.74352        29.53171        -0.12522
C         50.11644        31.70476        -0.26051
C         48.80563        31.01788        -0.26790
C         50.14590        33.11158        -0.50919
C         48.93580        33.78773        -0.80269
C         50.20923        35.95028        -0.61920
C         48.96846        35.25846        -1.11420
C         50.16950        37.40625        -0.39248
C         48.94414        38.16144        -0.64515
C         50.20519        40.33835        -0.45243
C         48.90144        39.59754        -0.20661
C         50.17538        41.71346        -0.50920
C         48.92127        42.43789        -0.52905
C         50.15082        44.58770        -0.26087
C         48.93142        43.82332        -0.46628
C         50.15733        45.96881        -0.39970
C         49.00714        46.64916        -1.00820
C         50.26896        48.87332        -0.84901
C         49.08549        48.12753        -1.28510
C         50.23379        50.29065        -0.97849
C         48.98033        50.96877        -1.21284
C         50.19956        53.07960        -1.07974
C         48.96571        52.38008        -1.22094
C         50.89086        21.05788         1.80836
C         52.19853        23.18634         1.86288
C         51.02111        22.48098         1.60245
C         52.16158        24.66486         1.90273
C         50.92104        25.39959         1.41383
C         52.25123        27.52814         1.30992
C         51.04759        26.80501         1.00450
C         52.38392        28.91091         0.94352
C         51.29040        29.55310         0.19399
C         52.52476        31.71332         0.21676
C         51.27991        31.02862         0.09408
C         52.59428        33.10151        -0.11057
C         51.39845        33.80608        -0.43978
C         52.68582        35.95898        -0.58486
C         51.38645        35.25102        -0.49653
C         52.75488        37.42936        -0.44010
C         51.47109        38.15750        -0.25986
C         52.68364        40.28891        -0.45977
C         51.47757        39.63305        -0.43033
C         52.74370        41.75479        -0.55366
C         51.42436        42.49528        -0.57982
C         52.61321        44.56097         0.11079
C         51.41568        43.90072        -0.14541
C         52.57049        46.00515         0.42748
C         51.32454        46.75928        -0.01001
C         52.63414        48.89983        -0.29257
C         51.39911        48.20209        -0.36766
C         52.67996        50.28459        -0.54565
C         51.45441        51.00871        -0.79161
C         51.39764        52.42774        -0.88360
C         54.59427        23.31431         2.38960
C         53.45486        22.57588         2.17692
C         54.63080        24.74944         2.31010
C         53.41644        25.43384         2.00020
C         54.54415        27.59962         2.31254
C         53.37167        26.83454         1.86805
C         54.62228        29.10333         1.98994
C         53.52953        29.67578         1.19634
C         54.92299        31.70879         0.84441
C         53.67163        31.02634         0.71961
C         55.01514        33.08858         0.42472
C         53.87113        33.75135        -0.04263
C         55.24912        35.89261        -0.33480
C         53.96000        35.15329        -0.50902
C         55.24802        37.40059        -0.32296
C         53.94172        38.09926        -0.38322
C         55.14003        40.27907         0.16884
C         54.01421        39.59041        -0.58783
C         55.11362        41.71149         0.26844
C         53.93544        42.46106        -0.04624
C         55.09547        44.58050         0.43478
C         53.87836        43.85423         0.14749
C         55.11869        45.99010         0.44368
C         53.85927        46.79863         0.63426
C         55.21129        48.83727        -0.14567
C         53.88654        48.11175        -0.14478
C         55.13583        50.30555        -0.23650
C         53.96477        50.95611        -0.46126
C         57.12309        24.83058         2.72273
C         55.83543        25.48555         2.54204
C         56.97277        27.66893         2.84566
C         55.80638        26.90310         2.57669
C         57.07557        29.03222         2.48121
C         55.94784        29.73255         1.93256
C         57.39684        31.63661         1.32500
C         56.05922        31.01182         1.36939
C         57.51315        33.08184         0.90240
C         56.27831        33.82556         0.54328
C         57.68040        35.93884         0.33632
C         56.37838        35.16444         0.26993
C         57.46411        37.38985         0.78086
C         56.36958        38.10498         0.37288
C         57.43285        40.26068         1.06595
C         56.27135        39.55737         0.56547
C         57.45904        41.69035         1.05151
C         56.28784        42.41831         0.67135
C         57.51078        44.55040         0.96587
C         56.30118        43.84430         0.66901
C         57.53781        45.97558         0.87489
C         56.34760        46.70321         0.56080
C         57.60899        48.79252         0.65972
C         56.39989        48.12504         0.40896
C         58.20599        25.51701         3.14539
C         59.40165        27.69050         3.50485
C         58.09400        26.96189         3.57216
C         59.49189        28.97257         3.10137
C         58.35488        29.71378         2.57943
C         59.68906        31.79731         2.27879
C         58.49748        31.01820         2.09886
C         59.77762        33.12328         1.94517
C         58.70681        33.85773         1.32355
C         59.93651        36.02150         1.39886
C         58.76190        35.22120         1.11345
C         59.85043        37.35847         1.55284
C         58.50871        38.03554         1.67296
C         59.67982        40.25727         1.98968
C         58.56392        39.54326         1.52934
C         59.73455        41.64571         1.92107
C         58.64100        42.39412         1.43926
C         59.87663        44.57372         1.59980
C         58.68579        43.83790         1.34084
C         59.91308        45.94686         1.49325
C         58.74679        46.68431         1.13319
C         58.75519        48.09633         1.03569
O         35.91690        25.07866        -3.64579
O         53.35976        35.43790        -1.80432
O         57.81192        32.00727        -0.05005
O         40.95524        46.02845         0.54268
O         55.63748        36.66817        -1.54109
O         26.91635        48.08179         0.50873
O         49.44391        22.42926        -0.23049
O         44.97471        42.17926        -2.89293
O         41.83095        51.68655         1.22769
O         25.80147        33.18674         0.16475
O         28.33477        42.12955        -0.16546
O         32.31427        38.74738         1.58362
O         47.65105        36.51568         0.63982
O         45.75957        48.51947        -2.75793
O         34.94775        41.00557        -2.35048
O         38.20493        44.34980        -2.67669
O         50.79208        37.74512         0.98379
O         28.04467        46.27428         3.49332
O         42.08210        31.50129        -3.33460
O         39.82588        33.31936         0.06868
O         33.54339        45.13829         1.80610
O         30.07041        49.31927        -0.72465
O         38.41722        52.81850         1.52063
O         34.71963        20.69365        -4.00835
O         35.49727        46.25886        -1.81154
O         54.22798        28.62765         3.31439
O         51.13918        25.16296         2.85240
O         42.30220        26.74725        -3.15403
O         50.98235        28.96035        -1.14799
O         30.71328        35.88096        -1.40238
O         54.69640        48.12581        -1.34922
O         52.20498        42.29427        -1.81004
O         49.32905        47.11079        -2.35887
O         47.54712        21.25814         2.80241
O         26.31093        25.92926        -1.02302
O         48.50756        30.37480         1.05466
O         31.02656        45.10048         2.69140
O         51.59659        46.43113         1.43098
O         47.47988        45.55270         0.56899
O         44.37625        30.15284        -3.16305
O         44.87717        45.00059         0.43153
H         45.71966        45.33571         0.83105
O         45.18703        45.66185        -3.17028
H         45.29377        46.50976        -3.65432
O         48.73969        39.56064         1.25743
H         49.39879        38.90139         1.59046
O         41.84638        17.80938        -2.17317
H         41.15300        17.25806        -2.59562
O         39.62070        23.29166         0.46012
H         39.53664        22.38737         0.83219
O         44.52062        50.84607         1.00078
H         43.74962        51.16950         1.52792
O         46.85017        26.27143        -2.40160
H         46.82572        27.11513        -2.90225
O         30.88039        36.68990         2.16473
H         31.32823        37.42686         2.64273
O         42.57746        41.64061        -3.55146
H         43.49764        41.62476        -3.91259
O         48.98604        35.40062        -2.58028
H         49.77059        34.91999        -2.92103
O         26.77473        31.49969         3.24429
H         26.90762        30.58924         3.58311
O         40.21272        40.20483        -3.47100
H         41.00353        40.70746        -3.79462
O         58.05660        37.77428         3.05169
H         57.27124        38.33787         3.21699
O         58.20525        36.02518        -1.02366
H         57.44852        36.29414        -1.60240
O         54.37271        39.74201        -2.00440
H         55.03841        39.05551        -2.22578
O         36.58706        48.59007        -2.36661
H         35.95191        47.97892        -2.80553
O         39.15664        55.46604         1.65007
H         39.02030        54.55385         2.00972
O         31.15666        26.83828        -3.08555
H         31.88437        26.45416        -3.62047
O         53.91518        47.19583         2.03776
H         52.99487        47.12550         2.39016
O         57.71757        26.93476         4.99568
H         56.80436        26.58001         5.04817
H         22.86692        26.41998         2.60495
H         22.88484        28.85919         2.97972
H         22.84383        30.79665         3.07290
H         22.90414        33.20946         3.42511
H         22.71036        35.15230         3.14674
H         22.67535        37.57930         3.22982
H         22.68016        39.44648         3.36896
H         22.67431        41.86031         3.56401
H         22.61277        43.74897         3.51985
H         22.60148        46.20366         3.64603
H         25.81694        23.21133         0.77971
H         23.98349        24.38341         1.87860
H         25.64676        49.70980         2.61276
H         23.79536        48.36787         3.51540
H         27.28861        22.37750        -0.13716
H         27.16168        50.65898         1.68506
H         29.28876        21.22484        -0.92541
H         29.11049        51.93939         1.05369
H         32.41701        19.52004        -3.52574
H         30.54424        20.50844        -2.22002
H         32.78433        54.17889         0.08511
H         30.70304        52.92782         0.39255
H         34.97913        18.14607        -3.74490
H         34.46807        55.08684        -0.58768
H         36.77038        16.96022        -2.48442
H         36.60015        56.28763        -0.66113
H         39.84359        15.06575        -0.01529
H         37.96346        16.17008        -1.16313
H         40.22843        58.39478        -1.11375
H         38.20446        57.36012        -0.22855
H         42.19184        15.08890         0.79830
H         42.61396        58.36753        -1.54087
H         44.27572        16.29415         1.20471
H         44.76522        57.18668        -1.73318
H         47.72985        18.54837         2.45979
H         45.80523        17.26696         1.69073
H         48.57934        55.07780        -1.57354
H         46.47011        56.28056        -1.58828
H         49.64557        19.35878         2.12609
H         50.20453        54.17752        -1.09946
H         51.79444        20.47673         2.04230
H         52.31016        53.02626        -0.76053
H         55.52117        22.77505         2.62716
H         53.52080        21.48019         2.22815
H         56.05518        50.89483        -0.10624
H         53.98828        52.05157        -0.54628
H         57.21686        23.76149         2.48457
H         57.66488        49.88475         0.55182
H         59.16870        25.00267         3.28481
H         60.29755        27.15982         3.86062
H         60.47702        29.45925         3.10565
H         60.55591        31.33534         2.77038
H         60.70889        33.65760         2.17980
H         60.92099        35.53156         1.44802
H         60.76704        37.94088         1.71801
H         60.54175        39.72300         2.41065
H         60.64321        42.15230         2.27168
H         60.79630        44.04220         1.87910
H         60.84798        46.49030         1.69235
H         59.68738        48.64407         1.23469
