         234
 CSIRO Nanostructure Databank - Neutral Graphene Oxide Data Set
C          1.25216         1.98518         0.09054
C          1.22057         3.39424        -0.11422
C          2.43561         1.29001         0.10895
C          2.35705         4.12878        -0.41582
C          1.15906         6.30333        -0.29543
C          1.14390         7.71173        -0.24498
C          2.33457         5.58031        -0.47924
C          2.31905         8.46015        -0.19321
C          1.09179        10.72147        -0.41424
C          1.13280        12.07627        -0.49530
C          2.26629         9.93496         0.00453
C          2.35562        12.83851        -0.33358
C          1.21981        15.08981        -0.60633
C          1.29993        16.47011        -0.61703
C          2.38079        14.27421        -0.45648
C          2.54795        17.16268        -0.59042
C          2.54315        18.61019        -0.39185
C          3.67721         1.96132        -0.13998
C          3.62685         3.37663        -0.58248
C          4.88913         1.30895        -0.01816
C          4.95091         4.12750        -0.67649
C          3.57405         6.36760        -0.65313
C          3.58058         7.79696        -0.27667
C          4.93372         5.63617        -0.69656
C          4.81471         8.48136        -0.12684
C          3.58090        10.68254         0.07355
C          3.57078        12.14170        -0.17870
C          4.84926         9.91342        -0.02526
C          4.80703        12.83625        -0.10324
C          3.63236        14.94808        -0.36570
C          3.70816        16.36288        -0.55694
C          4.83943        14.22954        -0.12005
C          5.02859        16.93275        -0.68653
C          3.59107        19.45490        -0.13948
C          4.98072        19.07216        -0.32787
C          6.14647         2.00351        -0.05017
C          6.17056         3.42092        -0.23347
C          7.36088         1.31835         0.15568
C          7.36376         4.12750        -0.02889
C          6.11048         6.36456        -0.23671
C          6.07418         7.75974        -0.06741
C          7.41869         5.61269        -0.34264
C          7.28127         8.50062         0.23898
C          6.06208        10.59553         0.01108
C          6.07233        12.06283        -0.14247
C          7.30563         9.89867         0.22055
C          7.36727        12.78652        -0.01711
C          6.03124        14.99453         0.43168
C          6.15791        16.39001        -0.14893
C          7.35917        14.24643         0.32897
C          7.39113        17.16815         0.00902
C          6.10383        19.37602         0.39029
C          7.36849        18.62955         0.29152
C          8.58461         2.00868         0.27246
C          8.56338         3.44088         0.27667
C          9.83797         1.30215         0.27361
C          9.81402         4.16949         0.42774
C          8.51947         6.26509         0.44775
C          8.47247         7.73720         0.67965
C          9.81366         5.53536         0.45800
C          9.76639         8.46211         0.93962
C          8.53881        10.65353         0.46772
C          8.60170        12.03126         0.31328
C          9.76977         9.96056         0.89053
C          9.85158        12.75354         0.21514
C          8.62875        14.98284         0.05648
C          8.59029        16.48285        -0.01482
C          9.82881        14.13629        -0.22612
C          9.84095        17.19877         0.30860
C          8.52159        19.30891         0.64196
C          9.84195        18.67407         0.76158
C         11.06705         1.95257         0.36435
C         11.07694         3.40136         0.78430
C         12.30979         1.29065         0.23312
C         12.34723         4.12091         0.41231
C         11.05692         6.32963         0.15519
C         11.06218         7.75058         0.69988
C         12.34872         5.61562         0.61553
C         12.30859         8.52638         0.45387
C         11.11715        10.69102         0.70245
C         11.08468        12.08538         0.23575
C         12.35254         9.90119         0.46561
C         12.33620        12.75972        -0.01774
C         11.00964        14.67337        -0.67766
C         11.07303        16.81185        -0.34199
C         12.32459        14.17453        -0.36332
C         12.30885        17.28559        -0.03266
C         11.14488        19.35008         0.70269
C         12.34592        18.62916         0.53372
C         13.54930         1.97887         0.28918
C         13.54037         3.44200         0.34534
C         14.78131         1.29985         0.24596
C         14.82115         4.14558         0.34363
C         13.54729         6.29325        -0.06224
C         13.56410         7.76300         0.34440
C         14.84724         5.59527         0.23764
C         14.82986         8.52196         0.04678
C         13.57938        10.62226         0.12543
C         13.54124        12.05605         0.00694
C         14.77126         9.96519        -0.15959
C         14.82065        12.78430        -0.02740
C         13.46667        14.98438        -0.33572
C         13.51695        16.52627        -0.58359
C         14.76067        14.31788        -0.09551
C         14.79860        17.12525        -0.04014
C         13.62285        19.21978         0.72171
C         14.82351        18.47779         0.54275
C         16.03110         1.98028         0.31097
C         16.00728         3.43160         0.39220
C         17.26160         1.29571         0.20277
C         17.30248         4.14344         0.32445
C         16.00769         6.31086         0.10533
C         15.98597         7.70920        -0.41530
C         17.31683         5.64205         0.11777
C         17.23333         8.40882        -0.88151
C         15.93449        10.67279        -0.76575
C         16.02396        12.11315        -0.51945
C         17.17965         9.89969        -1.19048
C         17.20398        12.87991        -0.93821
C         16.02915        15.01877        -0.41747
C         15.98043        16.44093        -0.18675
C         17.22248        14.33671        -0.60731
C         17.25792        17.22255        -0.10676
C         16.00744        18.96657         1.09363
C         17.25247        18.12215         1.12948
C         18.51861         1.96029         0.37003
C         18.49565         3.34420         0.68223
C         19.80525         1.33826         0.32060
C         19.66882         3.95127         1.11906
C         18.48704         6.56700         0.23672
C         18.50482         7.80671        -0.40871
C         19.67681         6.12382         0.84749
C         19.74175         8.51777        -0.52695
C         18.51924        10.57885        -1.62937
C         18.47754        12.18137        -1.41800
C         19.76439         9.81067        -1.15066
C         19.74937        13.00305        -1.34007
C         18.49391        15.05698        -0.57929
C         18.49967        16.38999        -0.22687
C         19.75017        14.35427        -0.87492
C         19.72505        17.20263        -0.12888
C         18.52217        18.91887         1.22618
C         19.70828        18.43640         0.70030
C         20.98087         2.06841         0.47538
C         20.95560         3.43759         0.86970
C         22.09603         4.33687         0.91057
C         20.94827         6.56938         0.48731
C         20.97672         7.82607        -0.22810
C         22.09327         5.70721         0.75208
C         22.20222         8.37786        -0.67702
C         20.99211        10.21097        -1.67308
C         20.96810        12.51426        -1.85058
C         22.20761         9.53499        -1.42777
C         22.17581        13.21760        -1.76785
C         20.98243        15.06409        -0.77470
C         21.03870        16.49670        -0.37170
C         22.18623        14.47605        -1.18668
C         22.22630        17.08279         0.25606
C         20.96125        19.04582         0.98883
C         22.17067        18.34856         0.80828
O          8.11612         6.77511         1.75113
O          8.20975        14.56585         1.46031
O         14.49185         8.09455         1.42409
O         21.04634        11.30331        -2.53998
O         16.15643        10.21000        -2.18070
O          5.13841        18.14430        -1.38175
O         17.55180        12.71402        -2.41212
O         17.48642         4.73645        -1.04360
O         10.94514        15.88263        -1.38545
O         20.42894        17.36935        -1.40487
O          4.31073         6.15542        -1.91207
O         16.37820         7.67504        -1.82765
O          6.85727        12.49092        -1.35783
O         19.54986         5.14745         1.83927
O          9.92104        17.54524         1.71768
O         10.47655        10.54473         2.01526
O          2.82747        10.34186         1.30035
O         14.93729        13.62755         1.19310
O         10.52998         7.90451         2.05404
O          4.32380         3.56374        -1.86594
O         12.46914         5.78268         2.05306
H         12.17621         6.68144         2.32294
O          5.72866        15.12919         1.84820
H          6.59673        15.23275         2.30639
O         10.99685         6.51298        -1.27876
H         11.12597         5.64835        -1.72182
O         13.56203        16.72254        -2.02455
H         12.68416        16.44733        -2.37406
O         18.56658        10.41559        -3.05193
H         17.74929        10.83362        -3.40907
O         11.07333         3.36711         2.25380
H         11.43073         4.23711         2.56050
O          7.80500         5.71755        -1.74914
H          7.05695         5.39214        -2.29521
O         17.18227        17.25280         2.30706
H         17.03766        17.81714         3.09484
O         17.27912        18.13397        -1.24277
H         17.35209        17.60238        -2.06298
O         13.40768         6.20731        -1.50153
H         14.27307         6.43002        -1.90977
H          0.30639         1.46488         0.29526
H          0.24958         3.89577        -0.00526
H          2.45043         0.21498         0.33897
H          0.19723         5.78266        -0.19886
H          0.17253         8.21623        -0.15429
H          0.16150        10.19442        -0.67085
H          0.21645        12.61437        -0.77680
H          0.22823        14.61953        -0.66500
H          0.37198        17.05981        -0.66017
H          1.53375        19.03627        -0.26351
H          4.89646         0.23490         0.22211
H          3.36647        20.47245         0.21735
H          7.35256         0.21963         0.21180
H          6.05641        20.17227         1.14840
H          9.81459         0.21304         0.11046
H          8.46207        20.39815         0.79407
H         12.31748         0.20165         0.06776
H         11.19287        20.43405         0.88376
H         14.78102         0.20160         0.16941
H         13.68842        20.23732         1.13513
H         17.25069         0.20798         0.03612
H         15.99234        19.92467         1.63784
H         19.86775         0.26806         0.07547
H         18.53863        19.81787         1.86375
H         21.94869         1.57502         0.30277
H         23.08714         3.85559         0.95263
H         23.08657         6.18095         0.69495
H         23.14548         7.85594        -0.46800
H         23.13930         9.93281        -1.85034
H         23.08870        12.77474        -2.18514
H         23.12519        15.04169        -1.12668
H         23.16678        16.51537         0.29103
H         20.97281        20.01447         1.50911
H         23.09603        18.80035         1.19482
