         294
 CSIRO Nanostructure Databank - Neutral Graphene Oxide Data Set
C          1.46226         2.08777         1.24643
C          1.41414         3.51379         1.00424
C          2.40978         1.29408         0.70577
C          2.31306         4.12484         0.18375
C          1.33249         6.23031        -0.75127
C          1.41866         7.62589        -1.04862
C          2.31789         5.58042        -0.06724
C          2.51365         8.40331        -0.69755
C          1.60997        10.47973        -1.75140
C          1.65826        11.89759        -1.93630
C          2.61723         9.79683        -1.10918
C          2.77879        12.65994        -1.67830
C          1.70471        14.84623        -2.26993
C          1.75830        16.27309        -2.42255
C          2.78358        14.09714        -1.84035
C          2.83828        17.01129        -2.00724
C          2.89084        18.46136        -2.01496
C          3.50941         1.78794        -0.20671
C          3.37943         3.31408        -0.51374
C          4.84316         1.29831         0.36895
C          4.84969         4.15233         0.47983
C          3.49462         6.34119         0.50087
C          3.60733         7.78773         0.04567
C          4.82394         5.62099         0.12328
C          4.79687         8.44779         0.26166
C          3.75113        10.64414        -0.56175
C          4.07300        11.88297        -1.42022
C          5.03983         9.85333        -0.24669
C          5.25258        12.66113        -0.77907
C          4.05396        14.82828        -1.58740
C          3.92020        16.29621        -1.24195
C          5.25779        14.13540        -1.04789
C          5.23675        17.02650        -1.16034
C          4.03170        19.14507        -1.75930
C          5.36164        18.43141        -1.70634
C          6.01083         1.96421         0.40714
C          6.05147         3.38809        -0.09362
C          7.27847         1.32014         0.94643
C          7.32408         4.15904         0.24478
C          6.02285         6.27365         0.85052
C          6.02757         7.77118         0.64224
C          7.31664         5.59426         0.45456
C          7.19768         8.45121         0.84902
C          5.88032        10.65233         0.79185
C          6.17301        12.06844         0.26853
C          7.18783         9.91723         1.08182
C          7.15464        12.89768         1.14224
C          6.34656        14.94335        -0.40841
C          6.27251        16.42535        -0.52617
C          7.26815        14.33846         0.60503
C          7.21725        17.29051         0.27247
C          6.51039        19.21406        -1.12087
C          7.49404        18.63271        -0.34427
C          8.54972         1.99450         0.45364
C          8.50395         3.43782         0.23774
C          9.72093         1.31043         0.37328
C          9.76778         4.15906         0.08784
C          8.48196         6.30211         0.63835
C          8.45616         7.69660         1.23866
C          9.75950         5.65471         0.33231
C          9.72942         8.50967         1.00714
C          8.47950        10.66105         1.25829
C          8.52984        12.15713         1.18780
C          9.73339         9.86913         1.10650
C          9.75942        12.78960         1.28999
C          8.09618        15.31146         1.36400
C          8.39083        16.55633         0.88016
C          9.90913        14.18855         1.67316
C          9.64430        17.27061         1.21385
C          8.68482        19.30537         0.03551
C          9.78800        18.65662         0.65439
C         11.01263         1.96367        -0.09247
C         11.05477         3.42359         0.40102
C         12.27676         1.22069         0.40864
C         12.27356         4.18682        -0.13608
C         11.02419         6.29818         0.87277
C         10.96818         7.78304         0.49359
C         12.28628         5.62873         0.33323
C         12.29818         8.45593         0.75157
C         11.01302        10.62386         1.24142
C         11.03809        12.09645         1.12079
C         12.31481         9.89933         1.08189
C         12.22803        12.79583         0.97984
C         10.99250        14.97619         1.40876
C         10.93295        16.46255         1.50271
C         12.22222        14.31623         0.81146
C         12.25348        17.19192         1.37738
C         11.02551        19.28733         0.63368
C         12.28963        18.48305         0.57333
C         13.55862         2.02553         0.25597
C         13.54982         3.43485         0.17539
C         14.78454         1.35068         0.15088
C         14.75375         4.15111         0.05136
C         13.43361         6.33409         0.17409
C         13.44564         7.76972         0.48082
C         14.69462         5.62677        -0.34179
C         14.67918         8.54745         0.20219
C         13.51765        10.70982         0.83592
C         13.51126        12.09502         0.86126
C         14.76479         9.93680         0.73921
C         14.79549        12.81403         0.77040
C         13.54018        14.90846         1.43401
C         13.54075        16.44232         1.44440
C         14.78224        14.33887         0.67967
C         14.82395        17.19436         1.18281
C         13.56149        19.27315         0.71512
C         14.77037        18.63847         0.82867
C         15.99101         2.05260        -0.05601
C         15.97625         3.46674        -0.04724
C         17.18809         1.37908        -0.54084
C         17.22061         4.22180        -0.47529
C         15.92357         6.36482         0.25127
C         15.92564         7.83493        -0.17361
C         17.25906         5.64332         0.06956
C         17.21335         8.61981        -0.24766
C         16.06285        10.66703         0.81310
C         15.99850        12.14592         0.78433
C         17.29633        10.02807         0.23131
C         17.32769        12.82815         0.84842
C         16.11642        14.92799         1.20292
C         16.11181        16.45588         1.05505
C         17.31854        14.29057         0.47226
C         17.33168        17.15961         0.49376
C         16.03472        19.32255         0.77991
C         17.26105        18.66222         0.70350
C         18.36183         2.04510        -0.75264
C         18.51491         3.42984        -0.15184
C         19.41391         1.46452        -1.56029
C         19.80476         4.18495        -0.58776
C         18.52264         6.40070        -0.15264
C         18.44025         7.82981        -0.65437
C         19.79324         5.69563        -0.59762
C         19.81331         8.49897        -0.34753
C         18.65836        10.56612         0.65305
C         18.62978        12.09213         0.77328
C         19.78140        10.00879        -0.20670
C         19.95534        12.82668         0.55770
C         18.62722        15.00249         0.75881
C         18.61437        16.50668         1.03386
C         19.81747        14.34971         0.45156
C         19.64009        17.18957         0.13733
C         18.47939        19.36924         0.59017
C         19.68019        18.69944         0.27855
C         20.52972         2.12936        -1.92267
C         20.92238         3.47018        -1.36598
C         21.57826         4.36195        -2.39336
C         20.79068         6.45935        -1.40050
C         20.83281         7.98734        -1.39434
C         21.59393         5.74308        -2.30190
C         22.15554         8.66804        -1.09987
C         20.89586        10.72594        -0.52744
C         20.79923        12.24953        -0.58960
C         22.13098         9.99510        -0.85059
C         22.10981        12.99962        -0.63051
C         21.00948        15.05679         0.13142
C         21.04312        16.56532         0.27126
C         22.16001        14.32562        -0.29885
C         22.02192        17.30029        -0.61027
C         20.83125        19.37187        -0.12594
C         21.93540        18.65660        -0.69022
O          3.63110         3.65534        -1.73366
O         15.02174         8.29642        -1.21570
O          5.13767        14.44865        -2.49203
O         17.52662        16.96681        -0.95955
O          7.68085        10.22416         2.44644
O         17.12631         9.77145        -1.18630
O          7.68051        14.43413        -0.80513
O         12.95551        17.06896         2.64620
O         15.75064        17.04775         2.33542
O         19.02893        16.91328        -1.17994
O          8.84137        14.73726         2.41136
O         18.14142         6.00817         1.19454
O         11.75961        10.17475         2.43191
O          9.83528         5.10124        -1.01550
O         20.39227         4.93090         0.52062
O          6.55090        12.06522        -1.12836
O         10.14191        17.06413         2.57075
O         15.54943        10.00939         2.00838
O         18.06932        12.49563         2.07386
O         14.69243         5.56425        -1.75475
O         20.72640        12.59805         1.75818
H         20.13630        12.78751         2.52069
O         10.78675         7.85080        -0.95320
H         11.30140         7.12239        -1.36736
O         12.09365         0.91361         1.81035
H         12.94170         0.56897         2.16030
O         14.73690        14.77470        -0.68588
H         13.88169        14.49512        -1.09067
O         17.12863         4.38847        -1.91047
H         16.22577         4.80840        -2.08880
O          8.31928         7.50586         2.69255
H          8.27822         8.41374         3.08329
O         11.00308         1.91117        -1.52880
H         11.45746         2.72235        -1.87735
O         12.18235        14.59658        -0.61813
H         11.34430        14.23628        -0.97854
O         15.66186         6.37679         1.67714
H         16.52787         6.42535         2.14398
O         18.57696         3.25023         1.27248
H         18.92003         4.09464         1.65135
O         18.89064        10.03653         1.98965
H         18.46786        10.66898         2.62004
O         18.81563        16.75742         2.42614
H         18.05626        16.36794         2.91644
O          6.39539        17.62263         1.46598
H          6.96681        18.13458         2.07893
O         20.08662        12.54342        -1.82135
H         20.54692        12.09589        -2.56170
O         11.14927         3.42902         1.85242
H         11.53400         2.56256         2.14784
O         11.01963         6.18581         2.30622
H         11.11856         5.22690         2.52365
O          3.33534         6.27227         1.94806
H          4.08707         6.76147         2.36208
O          5.72392        18.22826        -3.12313
H          6.50698        17.63762        -3.14811
O          5.89752         6.09037         2.29145
H          6.72366         6.48204         2.68906
O          6.02690         3.32777        -1.52239
H          6.15754         4.23825        -1.87379
O         12.25432         4.25731        -1.59451
H         13.11400         4.71209        -1.86550
O          4.61188         3.88433         1.78102
H          4.09346         4.63897         2.17822
O         18.23862         7.61605        -2.08492
H         17.62187         8.31181        -2.40981
O         22.02556         3.21396        -0.44090
H         21.95868         3.90893         0.25856
O         20.27917         7.96388         0.90901
H         19.89463         8.50478         1.63937
O         20.55275         8.43206        -2.74248
H         19.68042         8.04488        -3.00178
O          3.44414        16.26761         0.15019
H          3.43307        17.18965         0.48496
O          5.84348         9.62353        -1.41623
H          5.60524        10.27365        -2.12492
O         21.47466        16.81785         1.64166
H         20.70802        16.66085         2.24298
O          5.04711         5.79808        -1.27612
H          4.38152         5.22516        -1.75328
O         12.31047        17.96192        -0.82144
H         12.33296        18.73314        -1.42751
O          4.52522        11.49510        -2.74165
H          4.91668        12.29740        -3.15680
O         13.59932        14.46886         2.80195
H         13.16296        15.16617         3.34700
O          7.29248        -0.07811         0.67452
H          7.26920        -0.20012        -0.29686
O         17.17867        14.28206        -0.95855
H         17.19984        15.21280        -1.29203
O         16.31380        14.60774         2.58416
H         15.43767        14.65822         3.04057
O          6.61994        12.96992         2.47501
H          7.28460        13.43326         3.03463
O          3.36254         1.11961        -1.47889
H          3.63445         1.78491        -2.15772
O          5.16320        10.69476         2.03318
H          5.74688        11.15775         2.68079
O          3.20436        11.22428         0.64797
H          3.10265        10.51858         1.32108
H          0.69092         1.65479         1.89979
H          0.62241         4.10467         1.48696
H          2.40413         0.21401         0.91832
H          0.46859         5.66672        -1.13070
H          0.60068         8.06630        -1.63421
H          0.69547         9.96203        -2.07419
H          0.73353        12.38645        -2.27573
H          0.75987        14.34867        -2.53033
H          0.89434        16.77753        -2.88020
H          1.95370        19.00851        -2.20570
H          4.83754         0.24584         0.69916
H          4.02675        20.24513        -1.74983
H          7.26159         1.42795         2.06893
H          6.67183        20.22912        -1.51755
H          9.71859         0.22839         0.57903
H          8.85158        20.32122        -0.35656
H         12.37961         0.25334        -0.15667
H         11.07257        20.30694         0.21503
H         14.79312         0.24958         0.13141
H         13.52791        20.35598         0.51822
H         17.08135         0.34071        -0.89368
H         16.02825        20.42332         0.75783
H         19.23157         0.45689        -1.96631
H         18.47609        20.46725         0.66525
H         21.26534         1.64332        -2.58103
H         22.25420         3.87276        -3.11156
H         22.24792         6.31491        -2.97858
H         23.10524         8.13968        -1.26889
H         23.08154        10.54147        -0.75743
H         23.00870        12.51765        -1.04158
H         23.10966        14.86621        -0.42561
H         22.86020        16.76857        -1.08097
H         20.84272        20.47149        -0.13027
H         22.70736        19.22760        -1.22669
