         620
 CSIRO Nanostructure Databank - Neutral Graphene Oxide Data Set
C         23.04865        27.32755         0.17608
C         23.06230        28.70521         0.06102
C         23.08599        31.61546        -0.17722
C         23.09538        32.98752        -0.39866
C         23.08811        35.94967        -0.83810
C         23.15231        37.28747        -1.06737
C         23.37608        39.98281        -2.17345
C         23.45278        41.25119        -2.69109
C         23.73585        43.99732        -3.80916
C         23.91180        45.26255        -4.31428
C         25.43843        24.48730         0.54548
C         24.26052        25.18138         0.42710
C         25.49252        27.31115         0.35578
C         24.25605        26.60417         0.31967
C         25.49974        28.73299         0.21323
C         24.27626        29.43686         0.06939
C         25.52275        31.59249        -0.14363
C         24.28686        30.88679        -0.08138
C         25.53579        33.00619        -0.36010
C         24.30069        33.69140        -0.52800
C         25.62858        35.86498        -0.93320
C         24.29143        35.11544        -0.93947
C         25.60927        37.33244        -0.87446
C         24.40764        37.99986        -1.14832
C         25.60065        40.18026        -1.09745
C         24.45302        39.40710        -1.43228
C         25.50560        41.60682        -1.40294
C         24.52875        42.10977        -2.32607
C         25.67040        44.30029        -2.35787
C         24.62326        43.45839        -2.82197
C         25.91035        45.58801        -2.92436
C         25.01281        46.08673        -3.91128
C         26.34598        48.11442        -4.06887
C         25.24289        47.36600        -4.46544
C         27.98047        23.03750         0.66069
C         27.94134        24.45768         0.69896
C         26.69644        25.16463         0.59447
C         27.94933        27.29401         0.62426
C         26.71143        26.58361         0.52588
C         27.93777        28.71074         0.44038
C         26.75722        29.43442         0.20773
C         27.97125        31.58354        -0.01961
C         26.76713        30.87509        -0.00085
C         28.01474        33.01936        -0.14069
C         26.79049        33.73311        -0.35175
C         28.04427        35.87323        -0.40680
C         26.83775        35.13849        -0.51945
C         28.04390        37.31490        -0.49245
C         26.81518        38.06169        -0.65347
C         28.06410        40.15443        -0.35083
C         26.79755        39.49218        -0.64541
C         28.13491        41.50217         0.02641
C         26.31713        42.57286        -0.76987
C         27.54966        44.73831        -0.83089
C         26.46446        43.88958        -1.24758
C         27.99518        45.82418        -1.55759
C         27.07417        46.33707        -2.55922
C         28.48725        48.39422        -2.77445
C         27.26898        47.61219        -3.13259
C         28.40569        49.85414        -2.61404
C         30.40546        23.04587         0.92572
C         29.16920        22.35855         0.75757
C         30.40810        24.46156         0.97785
C         29.17204        25.17340         0.84266
C         30.40294        27.31492         1.14202
C         29.17309        26.59800         0.83707
C         30.38099        28.73045         1.10485
C         29.24217        29.38455         0.42323
C         30.40378        31.66671         0.57288
C         29.24287        30.85157         0.12405
C         30.55251        32.97670        -0.15625
C         29.23983        33.73191        -0.12125
C         30.53680        35.81772        -0.24720
C         29.27416        35.14243        -0.22660
C         30.53881        37.24705        -0.56647
C         29.27794        38.01069        -0.47942
C         30.57373        40.11394        -0.21009
C         29.31129        39.42142        -0.39846
C         30.58380        41.53536        -0.05279
C         29.35499        42.24022         0.04820
C         30.55467        44.38649        -0.24824
C         29.38101        43.65179         0.03009
C         30.54910        45.75250        -0.68982
C         29.48375        46.21841        -1.69752
C         30.68075        48.53421        -1.44912
C         29.62764        47.69982        -2.07170
C         30.64666        49.92974        -1.59621
C         29.44391        50.56052        -2.09915
C         32.86441        20.21480         1.09864
C         31.67010        20.90193         1.02905
C         32.87087        23.03509         1.16534
C         31.64206        22.31702         1.03008
C         32.85597        24.45034         1.33346
C         31.64008        25.17605         1.24586
C         32.76331        27.27433         2.13600
C         31.60585        26.59635         1.40753
C         32.81552        28.81413         1.94566
C         31.52284        29.53464         1.54442
C         32.87898        31.68452         1.11563
C         31.57652        30.99584         1.18685
C         32.91279        33.06584         0.76823
C         31.74818        33.75858         0.32102
C         33.00626        35.88428         0.20959
C         31.75418        35.14760         0.07877
C         33.05464        37.24827        -0.01128
C         31.86276        38.00356        -0.41867
C         33.01806        40.12626         0.26015
C         31.80896        39.44105        -0.13967
C         33.01239        41.57601         0.35944
C         31.79149        42.26888         0.09472
C         33.00106        44.41605         0.04350
C         31.78577        43.68680        -0.02385
C         32.98029        45.82140        -0.17547
C         31.76792        46.46871        -0.60834
C         33.01090        48.62705        -0.66485
C         31.82047        47.88029        -0.90075
C         33.01097        50.04378        -0.84488
C         31.80654        50.71048        -1.22764
C         32.97590        52.84167        -1.05405
C         31.81140        52.11991        -1.29590
C         35.44351        18.81796         1.25946
C         35.35192        20.16808         1.02205
C         34.10121        20.90642         1.11242
C         35.37892        23.04276         1.11653
C         34.10946        22.31580         1.15310
C         35.39177        24.45122         1.33084
C         34.12156        25.05287         1.91681
C         35.37064        27.34190         1.67268
C         34.12422        26.57741         1.98127
C         35.29693        28.81885         1.50731
C         34.07088        29.53789         1.66238
C         35.29786        31.68567         1.40087
C         34.06263        30.95865         1.40114
C         35.35526        33.07021         1.19929
C         34.15860        33.79167         0.85966
C         35.45195        35.89585         0.72762
C         34.21054        35.16885         0.58207
C         35.50502        37.28128         0.55198
C         34.35046        38.00203        -0.08009
C         35.41239        40.10053         0.90122
C         34.21841        39.42874         0.38625
C         35.39060        41.60775         1.04573
C         34.18628        42.31456         0.58690
C         35.41536        44.47608         0.47918
C         34.21261        43.73249         0.38038
C         35.41992        45.85882         0.21242
C         34.20171        46.55053        -0.08442
C         35.43922        48.69580        -0.13915
C         34.21916        47.95979        -0.29117
C         35.44012        50.10611        -0.31295
C         34.21903        50.78923        -0.63984
C         35.43140        53.02770        -0.52963
C         34.19053        52.20141        -0.77993
C         35.52273        54.26470        -1.38690
C         37.84021        18.76600         0.74614
C         36.66453        18.10791         1.06387
C         37.84338        20.18977         0.62567
C         36.53088        20.90550         0.44237
C         37.80273        23.06655         0.75054
C         36.57054        22.36284         0.82575
C         37.80157        24.48950         0.81377
C         36.57630        25.17575         1.11911
C         37.74858        27.33544         0.94674
C         36.60585        26.63333         1.21738
C         37.73603        28.81075         0.98629
C         36.49994        29.49270         1.38681
C         37.83120        31.65168         1.77699
C         36.52844        30.93125         1.66806
C         37.82844        33.11115         1.57523
C         36.61397        33.78510         1.28179
C         37.89849        35.87827         1.15247
C         36.65338        35.18399         1.08039
C         37.93125        37.29420         1.01299
C         36.71365        38.00848         0.79279
C         37.94674        40.14349         0.93974
C         36.72473        39.41944         0.84393
C         37.96818        41.58393         0.94068
C         36.69969        42.33505         1.11394
C         37.94914        44.48832         0.51703
C         36.68350        43.81371         0.86828
C         37.91137        45.84729         0.26917
C         36.66211        46.59283         0.23722
C         37.91629        48.75186         0.43271
C         36.65684        47.98239         0.12316
C         37.92098        50.15849        -0.09881
C         36.69491        50.84226        -0.30226
C         37.94289        52.91245        -0.75895
C         36.71020        52.22722        -0.58572
C         37.96432        54.27508        -1.20213
C         36.71033        54.86796        -1.61780
C         40.10827        16.10016        -0.60578
C         39.04088        16.66614         0.00072
C         40.30346        18.81957         0.21157
C         39.14516        17.99409         0.71325
C         40.28804        20.21130         0.33962
C         39.04119        20.91227         0.54318
C         40.25335        23.06877         0.46765
C         39.03721        22.35521         0.56611
C         40.24147        24.51008         0.49529
C         39.03242        25.19944         0.61219
C         40.30117        27.39786         0.70544
C         38.99127        26.68955         0.36471
C         40.32358        28.79982         0.96845
C         39.05545        29.55531         1.01507
C         40.28892        31.59120         1.73420
C         39.10243        30.94024         1.51609
C         40.25500        33.04514         2.17320
C         39.04720        33.78379         1.65800
C         40.36579        35.87666         1.41910
C         39.10980        35.17683         1.42473
C         40.37823        37.25613         1.19640
C         39.16182        37.99697         1.07559
C         40.42525        40.14018         0.98677
C         39.18187        39.42401         0.97863
C         40.42093        41.55768         0.84943
C         39.17291        42.28585         0.80463
C         40.39460        44.37410         0.31868
C         39.18888        43.73202         0.56634
C         40.46642        45.79477        -0.07086
C         39.14359        46.56994        -0.08327
C         40.40345        48.69510         0.05697
C         39.18708        48.01748         0.08499
C         40.40291        50.13461        -0.02534
C         39.15940        50.83279        -0.20919
C         40.41201        52.91824        -0.63714
C         39.17638        52.22080        -0.54774
C         40.42297        54.30022        -0.99240
C         39.19919        54.96963        -1.31371
C         40.44801        57.01633        -1.79225
C         39.25656        56.34538        -1.71653
C         42.50873        16.17775        -1.29763
C         41.37301        16.79708        -0.72654
C         42.65524        18.88816        -0.54835
C         41.44915        18.15845        -0.33359
C         42.71624        20.27240        -0.21728
C         41.49527        20.97272         0.13864
C         42.75119        23.11720        -0.06383
C         41.48058        22.36152         0.25334
C         42.73213        24.55306         0.38412
C         41.51380        25.23511         0.47858
C         42.78699        27.37096         0.59427
C         41.49598        26.66514         0.62926
C         42.79900        28.87454         0.90144
C         41.51844        29.51826         1.20127
C         42.77747        31.53577         1.92799
C         41.54323        30.88443         1.61360
C         42.74599        32.99147         2.25173
C         41.54435        33.76130         1.88028
C         42.87544        35.81856         1.65650
C         41.60141        35.12637         1.65347
C         42.94282        37.21690         1.20073
C         41.64712        37.97267         0.97646
C         42.90623        40.12336         1.04796
C         41.67178        39.44380         1.02615
C         42.90207        41.55380         0.89159
C         41.66588        42.22602         0.72587
C         42.97246        44.42291         0.39030
C         41.65811        43.63141         0.31759
C         42.91106        45.89539         0.47998
C         41.70394        46.56773         0.17883
C         42.87493        48.72379         0.35192
C         41.66588        47.98347         0.15731
C         42.86414        50.15453         0.21372
C         41.63202        50.84140        -0.05027
C         42.86641        52.96036        -0.32864
C         41.63751        52.24125        -0.34100
C         42.88709        54.35833        -0.69218
C         41.66557        55.00534        -1.05071
C         42.90897        57.06625        -1.52315
C         41.67880        56.37148        -1.45797
C         43.69421        16.87145        -1.46483
C         45.02901        18.97607        -1.20300
C         43.80560        18.24216        -1.08915
C         45.14835        20.28372        -0.63019
C         43.95379        20.93260        -0.21776
C         45.31780        22.97571         0.55604
C         43.99436        22.31444         0.31004
C         45.21477        24.46850         0.72868
C         43.99785        25.20931         0.59112
C         45.23923        27.32978         1.04112
C         44.03423        26.61759         0.78540
C         45.21927        28.73387         1.36318
C         44.04439        29.48931         1.38698
C         45.28094        31.50993         2.20828
C         44.00308        30.84323         1.86588
C         45.31665        33.01526         2.45388
C         44.02753        33.76666         2.44059
C         45.32129        35.87759         1.98618
C         44.06176        35.18726         2.02398
C         45.35210        37.29925         1.80073
C         44.15801        37.99932         1.46995
C         45.38895        40.10398         1.40091
C         44.15320        39.39865         1.28823
C         45.39601        41.54688         1.10109
C         44.12952        42.30290         0.96376
C         45.29476        44.50020         1.27095
C         44.15655        43.70512         0.88386
C         45.27443        45.89805         1.20140
C         44.08989        46.61520         0.78411
C         45.30727        48.79406         0.82167
C         44.08554        48.04367         0.67391
C         45.31129        50.20590         0.61793
C         44.07075        50.89953         0.32690
C         45.26187        53.10973         0.27022
C         44.05054        52.29935         0.07843
C         45.33848        54.45935        -0.30556
C         44.10789        55.08923        -0.73829
C         44.08988        56.43935        -1.17384
C         47.34099        19.05233        -1.93291
C         46.14029        18.42917        -1.93291
C         47.59132        20.21501        -1.06364
C         46.42082        20.95016        -0.51533
C         47.85204        22.86729         0.02753
C         46.57489        22.25024         0.06964
C         48.13526        24.13493         0.64272
C         46.30596        25.18046         1.22540
C         47.79162        27.18906         1.23653
C         46.44931        26.57839         1.19339
C         47.78615        28.68070         1.43065
C         46.49701        29.39951         1.66909
C         47.73306        31.55696         1.71821
C         46.53593        30.87514         1.74814
C         47.83669        32.94477         2.30890
C         46.55799        33.74638         2.20275
C         47.79382        35.88878         2.24694
C         46.55507        35.14986         2.13329
C         47.78263        37.28467         2.21531
C         46.57827        38.02076         1.93556
C         47.83263        40.19617         1.97303
C         46.58957        39.44200         1.75439
C         47.83433        41.62503         1.95977
C         46.64828        42.32734         1.43216
C         47.75690        44.51856         2.10443
C         46.48026        43.76759         1.77321
C         47.72169        46.01604         2.04267
C         46.44570        46.71383         1.62051
C         47.73419        48.84263         1.19805
C         46.51884        48.13629         1.18541
C         47.77025        50.21071         0.80293
C         46.54781        50.89761         0.62868
C         47.83499        53.03540         0.17470
C         46.58320        52.36588         0.53922
C         47.79210        54.38676        -0.14629
C         46.58036        55.07926        -0.37130
C         49.90287        20.51719        -2.22046
C         48.95209        20.87963        -1.14968
C         49.95304        23.21816        -1.31305
C         49.13607        22.23174        -0.49693
C         50.12739        24.54560        -0.68508
C         49.03800        25.07440         0.16185
C         50.10573        27.38596        -0.00633
C         49.08908        26.48698         0.61768
C         49.97787        28.86338         0.07311
C         48.83450        29.52220         0.78674
C         50.05382        31.69344         0.83448
C         48.92465        30.94528         1.17362
C         50.10890        33.10992         1.20255
C         49.02216        33.71296         1.80116
C         50.37832        35.84656         2.12941
C         49.06186        35.11226         2.27078
C         50.37379        37.32896         2.32702
C         49.02315        38.05548         2.42231
C         50.31042        40.19113         2.47371
C         49.02226        39.50546         2.24229
C         50.32262        41.71665         2.40362
C         49.02199        42.38750         2.15570
C         50.26538        44.48126         1.67255
C         49.02173        43.77783         2.01261
C         50.26496        45.98879         1.57211
C         49.03080        46.74780         1.93986
C         50.28666        48.81836         1.13183
C         49.01715        48.20768         1.57732
C         50.27043        50.16617         0.67889
C         49.03342        50.89244         0.58376
C         50.29495        52.85120        -0.16816
C         49.05562        52.25356         0.18719
C         50.70222        21.43679        -2.80421
C         51.71795        23.75784        -2.95546
C         50.74834        22.82841        -2.36248
C         51.97783        25.01630        -2.35197
C         51.21046        25.45131        -1.15860
C         52.14068        27.75394        -1.36430
C         51.12034        26.90480        -0.83824
C         52.17736        29.13372        -1.03214
C         51.12866        29.72380        -0.25972
C         52.23787        31.93270        -0.35398
C         51.14062        31.09519         0.07731
C         52.29519        33.29147         0.04223
C         51.29690        33.88757         0.86563
C         52.56906        36.03430         0.96778
C         51.42831        35.23525         1.29186
C         52.66508        37.42140         1.35687
C         51.55127        38.10362         1.91353
C         52.77025        40.23001         1.89990
C         51.56964        39.49582         2.10572
C         52.80910        41.67141         1.99854
C         51.58294        42.41319         2.08946
C         52.75579        44.56604         1.81884
C         51.56613        43.80400         1.83652
C         52.74673        45.98709         1.73442
C         51.54873        46.71288         1.62390
C         52.73816        48.80967         1.08543
C         51.50731        48.12868         1.33396
C         52.74086        50.09318         0.51696
C         51.50204        50.79967         0.33325
C         51.47710        52.14787        -0.10707
C         53.50081        24.22500        -4.55248
C         52.47313        23.41318        -4.09824
C         53.83227        25.43033        -3.89020
C         53.00617        25.84700        -2.81618
C         54.20068        28.02667        -2.80707
C         53.34499        27.08378        -2.01022
C         54.12969        29.44712        -2.53259
C         53.20949        29.99100        -1.53077
C         54.46886        32.10451        -1.51275
C         53.27289        31.35385        -1.18508
C         54.54942        33.54108        -1.17821
C         53.39611        34.15836        -0.42454
C         54.83523        36.16075         0.00490
C         53.62437        35.46529         0.21337
C         54.98004        37.48147         0.53686
C         53.87143        38.14274         1.15142
C         55.21741        40.20234         1.49509
C         53.95912        39.52734         1.52848
C         55.25505        41.64327         1.65495
C         54.03280        42.35655         1.82756
C         55.19954        44.58433         1.37486
C         54.07407        43.85675         2.08126
C         55.24977        45.97340         1.39023
C         54.05693        46.73199         1.98790
C         55.29556        48.90651         1.15678
C         54.00787        48.19817         1.53114
C         55.17914        50.05305         0.24383
C         53.98284        50.64850         0.02556
C         56.00027        25.70252        -5.12268
C         55.00623        26.20941        -4.25394
C         56.31207        28.31939        -4.08106
C         55.14572        27.53581        -3.72646
C         56.53701        29.59893        -3.50949
C         55.40081        30.27941        -2.87233
C         56.89444        32.15126        -2.09677
C         55.55951        31.52175        -2.13142
C         56.99228        33.56967        -1.70363
C         55.85801        34.22441        -1.16748
C         57.23298        36.19888        -0.68407
C         55.96331        35.53545        -0.64977
C         57.38538        37.48851        -0.07984
C         56.23381        38.13695         0.48720
C         57.68660        39.85316         1.33019
C         56.36403        39.41783         1.10854
C         57.73769        41.91181         1.57430
C         56.44739        42.42080         1.41998
C         57.60657        44.52961         0.68334
C         56.31166        43.77249         0.76676
C         57.57624        45.92386         0.55086
C         56.41101        46.66664         0.93331
C         57.73385        48.76949         0.47036
C         56.61498        48.13422         1.25865
C         57.13493        26.43315        -5.42837
C         58.53718        28.45385        -5.10129
C         57.33251        27.73647        -4.88662
C         58.76101        29.67349        -4.48206
C         57.77122        30.26372        -3.66483
C         59.11907        32.43592        -3.27387
C         58.02897        31.52231        -2.90512
C         59.23651        33.66650        -2.70681
C         58.21377        34.25406        -1.86882
C         59.59292        36.26545        -1.34423
C         58.35002        35.57444        -1.31719
C         59.74248        37.49724        -0.74428
C         58.65874        38.12802        -0.08163
C         59.99142        40.18476         0.56765
C         58.81869        39.38596         0.62199
C         60.03059        41.58004         0.73677
C         58.93250        42.41467         0.98684
C         59.92419        44.48593        -0.19720
C         58.97833        43.91302         0.82615
C         59.82693        45.81614        -0.48273
C         58.74383        46.60145         0.03492
C         58.74035        48.02435        -0.06649
O         36.71296        43.27758         2.24736
O         35.01542        26.99980         3.06487
O         51.45084        24.62426         0.03085
O         48.84734        26.62729         2.05145
O         50.37445        41.00650         3.68728
O         29.58005        29.91365        -0.94810
O         53.49473        34.28008        -1.90065
O         46.82772        46.56876         3.03868
O         35.17043        40.75325         2.21210
O         38.28400        29.43453        -0.26555
O         54.22243        30.28210        -3.73340
O         29.66383        47.91338        -3.53804
O         45.83197        53.01398         1.61767
O         25.04434        35.33733        -2.17696
O         49.81928        37.69928         3.61040
O         47.35938        24.44679         1.75574
O         42.41013        37.42149        -0.16141
O         31.94743        29.41782         2.95904
O         50.01570        35.19560         3.38650
O         57.91241        31.30422        -1.45081
O         57.88853        40.76186         2.37537
O         37.14989        31.20656         3.00591
O         45.39635        32.05677         3.57367
O         54.68662        49.11499         2.47917
O         47.36074        28.92029         2.79702
O         48.70890        19.87197        -0.12003
O         48.74273        29.32617        -0.67819
O         39.78165        46.10319        -1.32640
O         26.97827        42.18711         0.40647
O         42.88152        28.37615        -0.47658
O         30.57406        31.75935         2.00537
O         28.21907        44.34512         0.33322
O         43.20009        33.42566         3.59956
O         46.36234        41.95663         0.04839
O         46.86162        44.00946         3.15433
O         44.54972        22.34166         1.65579
O         50.09890        45.18268         0.35401
O         42.46924        43.90042        -0.88114
O         49.16993        47.73637         2.98334
O         31.34764        37.61485        -1.75014
O         55.90581        43.49660        -0.64383
H         55.85041        44.36138        -1.10440
O         32.41843        27.01436         3.53026
H         31.95083        27.82208         3.85809
O         48.07542        32.74084         3.73967
H         47.24974        32.33873         4.10609
O         34.08693        24.59227         3.30538
H         33.63112        25.29174         3.82813
O         49.94174        22.00972         0.69824
H         49.64516        21.15028         1.07694
O         30.81310        32.64024        -1.55416
H         30.83904        33.47579        -2.06646
O         42.83574        23.17508        -1.53407
H         42.04591        23.65826        -1.85887
O         35.31194        53.50384         0.86274
H         36.11616        54.03044         1.05812
O         54.35261        43.97199         3.51307
H         54.34493        44.93551         3.74377
O         37.92198        48.87749         1.91103
H         38.66522        49.47155         2.15101
O         57.05485        48.16737         2.65370
H         56.34733        48.62152         3.16925
O         59.47824        44.38090         2.14051
H         59.41258        45.36115         2.14307
O         39.44755        17.67753         2.11955
H         40.32387        17.23745         2.13799
O         40.14027        33.06384         3.63241
H         41.03423        32.91947         4.01388
O         54.18688        26.62038        -0.89074
H         53.66605        25.95868        -0.38402
O         38.85070        26.84157        -1.08924
H         38.73217        27.81042        -1.24986
O         36.28990        20.91132        -1.02471
H         36.23659        19.97366        -1.30868
O         54.21340        46.73196         3.43511
H         54.61150        47.59828         3.68571
O         34.68165        38.07557        -1.52624
H         33.83714        38.18073        -2.01715
O         29.87824        45.44756        -2.87296
H         29.84686        46.07466        -3.63846
H         22.09416        26.78243         0.15442
H         22.10371        29.22808        -0.05169
H         22.11591        31.10761        -0.10732
H         22.13662        33.51089        -0.51264
H         22.12158        35.48611        -0.59636
H         22.22301        37.87440        -1.04542
H         22.51881        39.34950        -2.43857
H         22.65527        41.61460        -3.35221
H         22.89891        43.38934        -4.17919
H         23.21478        45.65017        -5.07147
H         25.40114        23.39244         0.61726
H         23.30165        24.64375         0.40302
H         26.51412        49.10754        -4.50924
H         24.54937        47.76399        -5.21955
H         27.05412        22.46291         0.53401
H         27.47628        50.36684        -2.90118
H         29.15059        21.26285         0.70503
H         29.34991        51.65289        -2.02951
H         32.85113        19.11676         1.08133
H         30.73827        20.32558         0.97122
H         32.92878        53.93821        -1.09265
H         30.89363        52.67054        -1.53973
H         34.57234        18.25351         1.62089
H         34.60035        54.74757        -1.73893
H         36.66783        17.02323         1.23641
H         36.72715        55.81317        -2.17850
H         40.02781        15.09471        -1.04672
H         38.09902        16.10298         0.07709
H         40.47050        58.07116        -2.10216
H         38.32889        56.87903        -1.96211
H         42.44500        15.12333        -1.60343
H         42.91682        58.11707        -1.84633
H         44.56213        16.34314        -1.88142
H         45.02630        57.01064        -1.22097
H         48.18441        18.61205        -2.47986
H         46.00472        17.51465        -2.52558
H         48.72373        54.93942        -0.32774
H         46.65618        56.12070        -0.71208
H         49.95797        19.46892        -2.54437
H         50.32250        53.89949        -0.49218
H         51.39000        21.10880        -3.59480
H         52.41051        52.66112        -0.37191
H         54.07774        23.90375        -5.43020
H         52.26992        22.47705        -4.63482
H         56.07412        50.42832        -0.26971
H         53.94618        51.52760        -0.63181
H         55.89467        24.69176        -5.54012
H         57.83059        49.86408         0.49328
H         57.91226        25.99885        -6.07319
H         59.32003        28.00794        -5.73142
H         59.72472        30.18061        -4.62734
H         59.85840        32.11371        -4.02092
H         60.09925        34.28609        -2.98861
H         60.46694        35.80016        -1.81874
H         60.72779        37.98211        -0.76024
H         60.90942        39.72516         0.17144
H         60.98085        42.06670         0.46720
H         60.76041        43.88639        -0.58345
H         60.58053        46.31072        -1.11435
H         59.59362        48.52026        -0.55354
