         576
 CSIRO Nanostructure Databank - Neutral Graphene Oxide Data Set
C          5.92685        19.06391         0.94338
C          5.89424        20.44594         0.86359
C          4.73120        21.22433         1.20841
C          5.93738        23.39516         0.95040
C          4.77386        22.58684         1.29939
C          5.77162        24.84277         1.10608
C          8.44058        14.76621         0.78257
C          8.36567        16.13273         1.02068
C          7.15477        16.89494         0.90831
C          8.41255        19.01162         0.91024
C          7.14481        18.29150         0.90309
C          8.42015        20.47247         0.63480
C          7.10734        21.22221         0.53532
C          8.38787        23.34228         0.12110
C          7.10358        22.70535         0.61130
C          8.65976        24.74069         0.60926
C          6.40251        25.84653         0.34245
C          7.82080        27.92195         0.39623
C          6.68852        27.17382         0.82134
C          8.34353        29.11265         0.90379
C         10.88523        10.42405         0.26675
C         10.56371        11.61392         0.84600
C          9.52703        12.60383         0.59460
C         10.93702        14.60258         1.42442
C          9.63230        13.95766         0.88874
C         10.91687        16.14364         1.37132
C          9.60575        16.88660         1.32246
C         10.89982        19.03219         0.94815
C          9.59785        18.34146         1.06449
C         10.92331        20.52113         0.87705
C          9.62429        21.26185         1.12001
C         10.89660        23.28782         0.37377
C          9.68933        22.64001         0.52568
C         10.94046        24.68456        -0.04984
C          9.77235        25.41889        -0.13610
C         10.88450        27.62041        -0.11976
C          9.76062        26.84056        -0.32669
C         10.84206        29.04470         0.18418
C          9.61246        29.74346         0.55673
C         10.89415        31.87684         0.60130
C          9.69851        31.12669         0.78573
C         10.94291        33.28225         0.75365
C         13.41591         6.11771        -0.18751
C         13.30936         7.54493         0.06503
C         12.15542         8.25208         0.19919
C         13.45507        10.43908         0.41464
C         12.14033         9.67043         0.75229
C         13.63444        11.93216         0.59679
C         12.42541        12.71841         1.00916
C         13.20731        14.78010        -0.06933
C         12.19532        14.02344         0.77512
C         13.26398        16.26380         0.26198
C         12.14297        16.89905         0.99579
C         13.45149        19.00731         1.05300
C         12.15916        18.26565         1.03739
C         13.43945        20.53985         1.20688
C         12.18707        21.28415         1.02175
C         13.40466        23.37037         0.55511
C         12.17852        22.62105         0.63700
C         13.45597        24.71153         0.16528
C         12.21464        25.36182        -0.28195
C         13.41873        27.58425         0.04591
C         12.16826        26.91386        -0.26331
C         13.38302        29.02138         0.44013
C         12.06554        29.73793         0.23590
C         13.33984        31.86376         0.18707
C         12.11024        31.15804         0.34474
C         13.35291        33.28933         0.25627
C         12.14656        34.00101         0.58201
C         13.38809        36.13026         0.46702
C         12.20927        35.42299         0.70045
C         13.46153        37.56583         0.62610
C         15.88632         6.07172         0.04430
C         14.60474         5.43617        -0.16612
C         15.86368         7.54797         0.18134
C         14.57988         8.28258         0.24594
C         15.76787        10.40672        -0.58267
C         14.55527         9.75081         0.01273
C         15.77561        11.90156        -0.75738
C         14.43917        12.62293        -0.51782
C         15.95066        14.82230        -0.13370
C         14.61375        14.02025         0.13315
C         15.72547        16.29054        -0.54277
C         14.52019        17.03068        -0.02068
C         15.85058        19.13481         0.31290
C         14.67439        18.39885         0.52279
C         15.84783        20.56688         0.59485
C         14.70343        21.23912         0.93935
C         15.94278        23.49630         0.95362
C         14.65679        22.72155         0.98934
C         15.93270        24.85334         0.38658
C         14.67426        25.46406         0.14733
C         15.87241        27.63566        -0.08707
C         14.62674        26.89886         0.02126
C         15.81295        29.01399        -0.27536
C         14.59579        29.75485        -0.07216
C         15.85497        31.89193        -0.12418
C         14.55765        31.13635        -0.08174
C         15.69714        33.31503        -0.59567
C         14.53064        34.03692        -0.05553
C         15.80622        36.15210        -0.23045
C         14.57108        35.43060         0.04020
C         15.84387        37.58940         0.01656
C         14.62534        38.24792         0.42614
C         18.34337         6.10306         0.36056
C         17.09673         5.40970         0.13877
C         18.31737         7.61633         0.48572
C         17.09523         8.26712        -0.08535
C         18.18489        10.56141         0.05616
C         17.11983         9.65437        -0.65853
C         18.27433        11.83301        -0.81196
C         17.06830        12.66096        -0.87077
C         18.25676        14.87988        -1.13369
C         17.07068        14.07126        -0.90294
C         18.24296        16.36712        -0.98075
C         16.97019        17.09935        -0.69027
C         18.29907        19.14894        -0.10386
C         17.04078        18.50295        -0.20798
C         18.35549        20.60777         0.14650
C         17.09636        21.34453         0.40522
C         18.44794        23.42699         0.45119
C         17.25048        22.71861         1.06173
C         18.40911        24.80094         0.11646
C         17.15023        25.52404         0.12401
C         18.33682        27.60271        -0.45322
C         17.13323        26.92407        -0.17213
C         18.30739        29.00425        -0.81474
C         16.99529        29.69638        -0.83735
C         18.22134        31.93431        -1.03312
C         16.95861        31.19410        -0.87475
C         18.24683        33.31485        -1.06972
C         16.95402        34.06337        -0.96713
C         18.19122        36.25345        -0.94931
C         16.94933        35.50376        -0.67239
C         18.25770        37.66379        -0.49824
C         17.03125        38.29376        -0.10437
C         20.78979         6.20785         0.78495
C         19.54377         5.48120         0.64673
C         20.90569         7.55834         0.10596
C         19.53982         8.29201        -0.13008
C         20.78218        10.40411        -0.29750
C         19.55324         9.80099         0.33056
C         20.73316        11.53901        -1.11997
C         19.45890        12.16896        -1.41432
C         20.75273        15.01360        -1.36776
C         19.47354        14.39444        -1.64390
C         20.78953        16.33589        -0.76585
C         19.54258        17.11840        -0.80638
C         20.78890        19.14634         0.00422
C         19.53153        18.49220        -0.27263
C         20.86510        20.49744         0.28886
C         19.62292        21.23201         0.70546
C         20.88232        23.36999         0.13826
C         19.66009        22.71782         0.40999
C         20.85224        24.74445        -0.21790
C         19.61427        25.44970        -0.27039
C         20.76367        27.57206        -0.82422
C         19.59565        26.88661        -0.53323
C         20.79599        29.08112        -0.75226
C         19.45902        29.70034        -1.09803
C         20.67119        31.90010        -1.68895
C         19.38980        31.13977        -1.44024
C         20.70472        33.33378        -1.33521
C         19.49802        34.02274        -1.19909
C         20.81037        36.24161        -1.26598
C         19.46773        35.51163        -1.26211
C         20.73488        37.66714        -0.71456
C         19.47327        38.31031        -0.44021
C         23.24951         6.31373         1.13865
C         21.96947         5.62434         1.19275
C         23.24627         7.80867         1.12272
C         21.98215         8.46460         0.68147
C         23.22534        10.45399        -0.25832
C         22.01331         9.81064         0.03976
C         23.18759        11.66671        -0.98380
C         21.96978        12.09449        -1.51425
C         23.20136        14.73038        -0.91031
C         21.97065        14.33381        -1.53958
C         23.16834        16.06907        -0.27666
C         21.95664        16.90073        -0.33397
C         23.29841        19.03145        -0.07175
C         22.01797        18.28921         0.28598
C         23.33399        20.44727        -0.01996
C         22.18334        21.13429         0.69996
C         23.50845        23.44300         0.23353
C         22.16142        22.73956         0.71289
C         23.30029        24.79139        -0.46364
C         22.09195        25.43567        -0.54911
C         23.28106        27.66289        -0.79598
C         22.03437        26.83198        -1.16374
C         23.22973        29.07619        -1.36904
C         22.01290        29.71333        -1.40851
C         23.23171        31.91935        -1.90546
C         21.94634        31.12296        -1.83630
C         23.15883        33.37153        -1.57329
C         21.98797        34.00902        -1.20989
C         23.21953        36.17351        -0.53548
C         21.89406        35.40103        -0.55076
C         23.21556        37.67810        -0.70598
C         21.90203        38.35880        -0.57447
C         25.72142         6.24554         0.93437
C         24.42783         5.60866         1.07929
C         25.76585         7.73029         0.74217
C         24.53889         8.55895         0.92714
C         25.69333        10.31730        -0.56424
C         24.53027         9.99891         0.36746
C         25.69462        11.75012        -0.98375
C         24.41842        12.49990        -1.16400
C         25.66994        14.62870        -0.60112
C         24.39252        13.97548        -0.88787
C         25.71365        16.07977        -0.52275
C         24.49128        16.82179        -0.19689
C         25.68339        18.95950        -0.60638
C         24.47262        18.29195        -0.30402
C         25.67695        20.37611        -0.73134
C         24.49623        21.13787        -0.42353
C         25.61838        23.23066        -1.06574
C         24.52270        22.57769        -0.50865
C         25.63394        24.67659        -1.18279
C         24.52061        25.45343        -0.91782
C         25.67081        27.57098        -1.52687
C         24.54058        26.90501        -1.14295
C         25.74764        29.03770        -1.89470
C         24.46373        29.80327        -1.65412
C         25.82547        31.88901        -2.04823
C         24.50315        31.17784        -1.74185
C         25.78012        33.40516        -1.78051
C         24.43698        34.10334        -1.65888
C         25.60961        35.97501        -0.41920
C         24.42452        35.51279        -1.13903
C         25.24522        36.88564         0.61070
C         23.76332        37.07287         0.58569
C         28.20079         6.37372         1.06392
C         26.91012         5.58549         1.04184
C         28.18207         7.46623        -0.01508
C         26.90673         8.23042        -0.10923
C         28.14423        10.27716        -1.06301
C         26.87086         9.62862        -0.60752
C         28.14293        11.81357        -1.23461
C         26.94561        12.42994        -0.49681
C         28.16541        14.58256        -0.37521
C         26.87953        13.92468        -0.61241
C         28.17204        16.10299        -0.37780
C         26.90093        16.79625        -0.59104
C         28.14232        18.91167        -0.86250
C         26.91592        18.22984        -0.71754
C         28.13307        20.33618        -1.02282
C         26.89255        21.02877        -1.04981
C         28.19872        23.18732        -1.35169
C         26.83381        22.44523        -1.39034
C         28.07212        24.63895        -1.05250
C         26.88758        25.31698        -1.73503
C         28.16963        27.56385        -1.13888
C         26.94916        26.83350        -1.61351
C         28.12494        29.04354        -0.96500
C         26.97015        29.75916        -1.32574
C         28.18707        31.84633        -1.01706
C         27.00604        31.17859        -1.37347
C         28.35252        33.35149        -1.16893
C         27.03041        34.11609        -1.28079
C         27.86470        35.86314         0.37352
C         26.86117        35.35199        -0.46736
C         27.59010        36.98029         1.25624
C         26.22334        37.40850         1.43659
C         30.66206         6.19321         0.76901
C         29.46610         5.56116         1.00027
C         30.69098         7.58292         0.32353
C         29.51503         8.03815        -0.51207
C         30.67165        10.37992        -0.59258
C         29.46256         9.55349        -0.82545
C         30.67354        11.74547        -0.81281
C         29.45251        12.49943        -0.89652
C         30.68537        14.61197        -0.51674
C         29.45362        13.87249        -0.64054
C         30.67880        16.08762        -0.14633
C         29.42803        16.82152        -0.56452
C         30.64664        18.93261        -0.72543
C         29.40407        18.18955        -0.77060
C         30.61358        20.34115        -0.71046
C         29.36859        21.06417        -0.90509
C         30.47731        23.21675        -0.33438
C         29.35907        22.46635        -0.85092
C         30.48483        24.59237        -0.24359
C         29.23346        25.35702        -0.42619
C         30.56437        27.56119        -0.40795
C         29.22370        26.87469        -0.28306
C         30.58142        28.92964        -0.48792
C         29.35602        29.69861        -0.70630
C         30.59202        31.83947        -0.40879
C         29.38150        31.12066        -0.71963
C         30.49874        33.17864         0.03055
C         29.30829        33.89863        -0.12878
C         30.19401        35.82554         1.12804
C         29.15106        35.20140         0.45233
C         30.07009        37.26345         1.56592
C         28.64656        37.57831         1.94488
C         33.07877         6.28413         1.11649
C         31.93022         5.55839         1.07104
C         33.08880         7.70144         0.82208
C         31.84731         8.31625         0.38495
C         33.13685        10.47512         0.02553
C         31.79871         9.81812         0.25480
C         33.18423        11.81338        -0.36698
C         31.97785        12.49552        -0.96605
C         33.15232        14.67334        -0.51847
C         31.91237        13.95980        -0.60201
C         33.15795        16.10949        -0.52317
C         31.93645        16.82079        -0.52772
C         33.10041        18.99993        -0.47971
C         31.90134        18.25113        -0.59707
C         33.04994        20.40493        -0.29775
C         31.80155        21.05479        -0.42747
C         32.86557        23.13068         0.64157
C         31.67168        22.43449         0.06032
C         32.70544        24.61565         0.98158
C         31.76713        25.31882         0.00436
C         32.92963        27.57369         0.46505
C         31.80054        26.80649        -0.11113
C         33.04241        28.92271         0.18062
C         31.89342        29.63694        -0.44653
C         33.16074        31.90023         0.01940
C         31.89798        31.15804        -0.41523
C         33.05510        33.40249         0.28907
C         31.65290        33.78477         0.73342
C         32.70747        36.02314         1.52114
C         31.47998        35.15078         1.30685
C         32.34759        37.06206         2.56235
C         31.12148        37.60399         2.60070
C         34.26579         8.42691         0.85828
C         35.54898        10.49953         0.44658
C         34.33339         9.81103         0.45684
C         35.62293        11.87514         0.06092
C         34.39859        12.53830        -0.32284
C         35.62188        14.68608        -0.50870
C         34.39868        13.96897        -0.49800
C         35.61022        16.09950        -0.44032
C         34.40138        16.80508        -0.47251
C         35.52066        18.97772         0.21406
C         34.42935        18.30738        -0.60034
C         35.50361        20.45677         0.25816
C         34.23375        21.18655         0.03359
C         35.41123        23.27691         0.72204
C         34.19328        22.51195         0.43660
C         35.36379        24.65821         1.06864
C         34.04759        25.33161         1.21913
C         35.33692        27.53289         1.21439
C         34.05213        26.83199         1.08844
C         35.14172        28.93832         1.38161
C         34.16432        29.66374         0.72248
C         35.51872        31.90057         1.11421
C         34.34346        31.13281         0.54166
C         35.34930        33.22237         1.42063
C         34.09697        33.94424         1.26543
C         33.90864        35.16264         1.84434
C         36.83210        12.57137         0.04615
C         38.03654        14.78483         0.07455
C         36.95316        13.94278        -0.55289
C         38.23460        16.17589        -0.48158
C         36.88070        16.80507        -0.07716
C         38.06101        19.05287         0.40434
C         36.83712        18.27039         0.29430
C         38.01967        20.46876         0.47208
C         36.77655        21.23872         0.03035
C         37.85892        23.35743         0.78454
C         36.67395        22.63769         0.60439
C         37.81886        24.73733         1.07594
C         36.57101        25.42051         1.19505
C         37.84435        27.61623         1.35997
C         36.56563        26.87802         1.34617
C         38.04459        29.00678         1.25924
C         37.05507        30.01913         1.46695
C         36.86804        31.31060         1.03196
C         39.38478        16.97387         0.07926
C         40.48137        19.07030         0.78284
C         39.32817        18.34045         0.43438
C         40.38674        20.48890         1.27243
C         39.16527        21.19741         0.74653
C         40.38310        23.39645         0.94655
C         39.16669        22.67362         0.43353
C         40.31785        24.72975         1.22458
C         39.06699        25.46329         1.20692
C         39.05139        26.83622         1.32204
C         41.64592        21.29386         1.07692
C         41.62501        22.64089         0.99757
O         16.06083        16.78601        -1.85020
O         13.54678        19.66340         2.37685
O         10.29054        16.64171         2.61111
O         28.17833        15.32998         0.90048
O         32.14250        30.40338        -1.65423
O         15.50375        10.99475        -1.90513
O         31.45395        33.94124         2.16983
O         19.79216        31.53758        -2.80223
O         34.24821        31.55371        -0.88718
O         27.99292        27.28663        -2.57479
O         16.59652        15.04280         1.15328
O         27.26621         7.21170        -1.12224
O         16.61369        30.43178        -2.06288
O         28.11176        24.82133         0.39839
O         31.97177        22.36847         1.51996
O         23.87087        16.21917         0.98673
O         10.93038        19.77304        -0.38017
O         18.89555        17.02130        -2.12835
O         22.00221        18.16157         1.70539
O         36.83341        17.17262         1.31567
O         13.43289        17.02560        -1.01336
O         24.78513        10.93529         1.40319
O         21.97711        13.20926        -2.36926
O         18.63107        36.01890        -2.35501
O         24.39671        35.28090        -2.55685
O         14.56990        12.20301         1.72022
O         33.86142        26.15710         2.40990
O         15.26711         7.97911         1.52939
O         35.27614        19.64676         1.48577
O         22.54986        31.46214        -3.12153
O         35.97777        29.58616         2.27230
O         17.68169        21.33421        -0.94021
O         25.24778        12.08322        -2.32320
O          7.87422        20.77675        -0.67334
O          8.34371        25.16730         1.70897
O         15.17892        23.37640         2.21621
O          8.53448        27.40486        -0.71448
O         36.93388        21.45071        -1.36508
O         15.97874        33.61023        -1.98635
O         27.61608        22.74689        -2.58902
O         25.53111         8.43105         2.00458
O         19.46443        13.19805        -2.38110
O         12.28318        26.12686        -1.50970
O         28.86930         9.69804        -2.18030
O         32.31229        25.89594        -1.21591
O         11.51156        12.02898         1.81975
O         26.62336        34.18435        -2.67605
O         22.28042         8.37860         2.09800
O         13.68540        12.57036        -1.71200
H         14.25489        12.78424        -2.47767
O         26.04176        31.76440        -3.46848
H         25.96651        30.80299        -3.70367
O         29.78681         7.37590        -1.77275
H         28.96976         7.47327        -2.31467
O         17.47144         9.55700        -2.05774
H         16.86745        10.16627        -2.55230
O         27.11089        12.14926         0.90740
H         26.24347        11.78373         1.27473
O         21.47172         7.23902        -1.20016
H         20.77817         6.76925        -1.71469
O         12.07105         9.49097         2.18176
H         11.99230        10.38829         2.58419
O         40.19317        20.40055         2.74171
H         39.44017        19.79200         2.90495
O         11.01644        14.25224         2.82212
H         10.49836        14.92585         3.32041
O         17.59250        10.94636         1.29677
H         18.18082        10.62180         2.02207
O         21.41986        35.18788         0.79727
H         22.08516        34.66386         1.28891
O         33.26002        34.08329        -0.97803
H         33.91452        33.54894        -1.48465
O         19.57056        20.98767         2.13653
H         20.48781        21.06162         2.49420
O         24.14757        38.27153        -1.57337
H         24.07587        37.84539        -2.45300
O          9.43205        21.40127         2.55576
H         10.15477        21.95672         2.91721
O         30.69110        16.11347         1.32680
H         29.80866        15.75783         1.60995
O          6.88037        25.45199        -0.85463
H          7.43322        26.16632        -1.25701
O         30.34407        38.12288         0.40321
H         29.77185        37.82231        -0.33451
O          8.37013        23.36209        -1.32515
H          8.25251        22.42505        -1.61378
O         25.94997        29.04615        -3.34921
H         26.76587        28.51595        -3.52022
O         31.41265        10.26831         1.61409
H         31.98952         9.80422         2.25845
O         18.25860         7.88630         1.91673
H         17.33852         7.71665         2.22090
O         14.68931        13.67391         1.58393
H         16.55425        14.20705         1.67367
O         20.97531        29.39607         0.68799
H         21.73228        28.83413         0.99814
O         16.33242        31.97121         1.26058
H         15.57817        32.23986         1.82733
O         19.32275         8.21921        -1.54146
H         19.93734         8.83584        -1.99193
O         19.74838         9.88282         1.75296
H         20.57640         9.43565         2.03302
O         32.20177        12.47144        -2.42597
H         33.01099        12.99497        -2.60821
O         26.89445        25.04216        -3.14765
H         27.54884        25.64225        -3.56855
O         13.54212        29.02858         1.92115
H         14.39091        28.57911         2.12456
O         29.05963        33.53797        -2.42775
H         28.36367        33.59054        -3.12773
O         37.31146        13.73316        -1.97893
H         36.62609        13.15746        -2.37987
O         27.95968        12.08843        -2.64043
H         28.44002        11.38473        -3.13477
O         22.06835        26.69193        -2.60973
H         21.26152        26.21560        -2.89644
O         34.87756        18.55581        -1.98255
H         34.16804        18.26924        -2.59522
O         22.36270        20.73444         2.09699
H         22.29474        19.71089         2.12825
O         24.25593        23.79275         1.43007
H         23.57895        23.88686         2.14850
O         12.76646        14.70258        -1.42696
H         13.01978        15.54441        -1.87762
O         23.25162        27.79399         0.66277
H         24.14363        28.05737         0.97214
O         38.38470        16.18726        -1.90104
H         38.12354        15.30067        -2.25542
O         32.99592        36.69925         0.27121
H         33.19608        36.00234        -0.39882
O         28.26879         7.07114         2.34997
H         27.38990         7.47072         2.54086
O         28.80796        27.17376         1.08407
H         28.37686        26.36376         1.44596
O         21.23739        36.34649        -2.63774
H         20.43160        36.49692        -3.18206
O         39.27027        22.69033        -1.02647
H         38.41348        22.27870        -1.37924
O         31.94354        24.70618         2.20105
H         32.39027        24.17586         2.89327
O         21.99508        23.14290         2.09794
H         22.16183        22.34277         2.65875
O         17.55195        22.54328         2.45626
H         16.70964        22.65970         2.95634
H          4.98809        18.52743         1.15154
H          3.80009        20.69114         1.45152
H          3.86349        23.12414         1.60439
H          5.13602        25.16184         1.94658
H          7.51185        14.24376         0.49982
H          6.20358        16.35135         0.80281
H          6.20001        27.48893         1.75465
H          7.71938        29.67194         1.61860
H         10.25623         9.97924        -0.51793
H          8.57330        12.24362         0.17341
H          8.79115        31.66589         1.09837
H         10.01909        33.83041         0.99248
H         12.48219         5.55635        -0.34221
H         11.18369         7.74522         0.09037
H         11.29757        35.97194         0.98075
H         12.55338        38.10360         0.93582
H         14.59535         4.34499        -0.30988
H         14.65554        39.33717         0.57773
H         17.11999         4.31171         0.05194
H         17.04939        39.36795         0.13473
H         19.57208         4.38529         0.76509
H         19.50503        39.35596        -0.09575
H         21.97159         4.56919         1.51050
H         21.88972        39.42547        -0.29924
H         24.40018         4.50897         1.12642
H         23.20589        37.22197         1.52447
H         26.93371         4.50041         1.22658
H         25.98991        38.15051         2.21291
H         29.45346         4.52101         1.36134
H         28.44566        38.43453         2.60731
H         34.03084         5.80424         1.38703
H         31.93429         4.48829         1.32515
H         33.10925        37.35739         3.30095
H         30.87212        38.36357         3.35796
H         35.19983         7.92577         1.15286
H         36.46945         9.98285         0.75551
H         36.20717        33.79210         1.80968
H         34.70102        35.58399         2.48356
H         37.76250        12.02679         0.26681
H         38.08374        14.72094         1.17672
H         39.06422        29.33754         1.00471
H         37.67545        31.89922         0.57160
H         40.38611        16.53986        -0.07329
H         41.44975        18.55295         0.85421
H         41.23003        25.27727         1.50895
H         40.01011        27.37382         1.37950
H         42.60422        20.75485         1.11610
H         42.57155        23.20374         0.97823
