         669
 CSIRO Nanostructure Databank - Neutral Graphene Oxide Data Set
C          7.05207        31.89953        -3.62968
C          7.02515        33.25104        -3.59658
C          9.19442        27.55779        -2.53094
C          9.18007        28.95406        -2.46741
C          8.09707        29.73836        -3.04339
C          9.02950        31.83466        -2.03970
C          8.05046        31.10046        -2.93451
C          9.23406        33.25482        -2.47981
C          7.98456        34.05038        -2.74842
C          9.36387        36.12919        -2.77888
C          8.30500        35.43333        -3.26973
C          9.61005        37.52392        -3.12327
C         11.61679        23.21065        -1.93077
C         11.75252        24.66774        -2.27534
C         10.44867        25.42186        -2.41319
C         11.43066        27.44758        -1.41985
C         10.32445        26.75715        -2.12393
C         11.44708        28.94082        -1.39731
C         10.30769        29.68259        -1.96006
C         11.45131        31.76783        -1.34412
C         10.32006        31.07904        -1.84120
C         11.30345        33.23079        -1.03381
C         10.49840        33.96117        -2.14109
C         11.60769        36.08983        -1.57714
C         10.25052        35.46108        -1.74185
C         11.85988        37.40372        -2.15047
C         10.75891        38.16257        -2.78222
C         11.93740        40.34407        -2.21809
C         11.04961        39.59231        -3.19449
C         11.82897        41.70661        -2.01132
C         13.58525        18.91306        -0.61815
C         13.58781        20.33022        -0.64065
C         12.57214        21.07291        -1.23126
C         13.82489        23.19422        -0.79811
C         12.64166        22.50466        -1.33859
C         13.87865        24.64795        -0.87326
C         12.78277        25.35280        -1.40965
C         13.79579        27.41575        -0.61657
C         12.70359        26.73128        -1.18161
C         13.68416        28.86784        -0.35038
C         12.78974        29.63480        -1.30721
C         13.71082        31.77062        -0.36861
C         12.64367        31.09693        -0.95673
C         13.74085        33.22260        -0.35450
C         12.61228        33.94456        -0.80109
C         13.88395        36.03348        -0.60382
C         12.68450        35.35688        -0.98074
C         13.83067        37.53044        -0.50511
C         13.07850        38.17114        -1.65742
C         14.04382        40.33145        -0.93969
C         13.03244        39.64510        -1.62676
C         13.95817        41.72583        -0.73767
C         12.80089        42.42090        -1.23447
C         13.68613        44.51264        -0.27644
C         12.69659        43.79757        -1.01207
C         13.56497        45.88900        -0.12929
C         15.87595        14.62568         0.06471
C         15.90437        16.00656         0.06174
C         14.72758        16.77719        -0.23768
C         16.04120        18.90984        -0.11502
C         14.72442        18.17015        -0.23598
C         15.89849        20.30302         0.48167
C         14.68147        21.05582         0.05247
C         15.89567        23.21244         0.65927
C         14.79241        22.51280        -0.11050
C         16.12291        24.64266         0.23430
C         14.99854        25.34984        -0.34943
C         16.25716        27.59945        -0.12821
C         15.00428        26.75690        -0.34956
C         15.95365        28.69872         0.93751
C         14.77745        29.55483         0.38433
C         16.09088        31.73810         0.60545
C         14.92074        31.01271         0.05487
C         16.01484        33.24557         0.81116
C         14.92441        33.91706         0.00440
C         16.19699        36.03432         0.33655
C         14.99375        35.32528        -0.10175
C         16.23210        37.47565         0.25497
C         15.16002        38.17238        -0.27764
C         16.28945        40.33911         0.23738
C         15.33620        39.60827        -0.66522
C         16.17837        41.73258         0.39722
C         15.00381        42.43788        -0.05325
C         15.91444        44.52480         0.89529
C         14.86640        43.81907         0.22050
C         15.71643        45.95579         1.27021
C         14.50058        46.66480         0.67547
C         15.68662        48.86171         0.58031
C         14.55653        48.10790         0.39843
C         15.73004        50.24196         0.22742
C         18.32977        10.32496        -0.30064
C         18.29598        11.74261        -0.06001
C         17.09886        12.40753         0.10844
C         18.34101        14.55564         0.46758
C         17.03291        13.82321         0.59539
C         18.34575        15.96930         0.58846
C         17.14019        16.71026         0.40304
C         18.34044        18.78745         0.89044
C         17.16495        18.11374         0.50500
C         18.27631        20.22256         1.35292
C         17.14681        21.04411         0.78151
C         18.39062        23.14934         1.10267
C         17.18931        22.42043         0.77868
C         18.44808        24.54692         1.01993
C         17.28934        25.29703         0.54536
C         18.51329        27.42801         1.11306
C         17.53309        26.75060         0.15844
C         18.41248        28.85472         1.41564
C         17.19868        29.50641         1.27640
C         18.29369        31.75878         1.85998
C         17.09317        30.98169         1.43967
C         18.60054        33.04383         1.03959
C         17.38570        33.85267         0.43942
C         18.51373        36.04916         1.13921
C         17.35767        35.34595         0.71235
C         18.53066        37.47803         1.17020
C         17.41131        38.19470         0.69048
C         18.49816        40.34043         1.33507
C         17.39632        39.62460         0.75464
C         18.42294        41.74451         1.44509
C         17.24375        42.45297         1.02628
C         18.18923        44.53680         2.02946
C         17.11140        43.85712         1.21300
C         18.22251        46.07940         1.84896
C         16.92174        46.80843         1.62057
C         18.17601        48.89559         0.81100
C         16.87767        48.33989         1.35979
C         18.18777        50.23490         0.46591
C         16.93261        50.97011         0.28016
C         18.20483        53.06444        -0.12941
C         16.98162        52.34566        -0.00115
C         18.18931        54.44538        -0.32316
C         20.73715         6.02814        -0.92300
C         20.73908         7.51441        -0.66079
C         19.55555         8.20371        -0.58791
C         20.78430        10.34727        -0.42528
C         19.52599         9.63191        -0.41219
C         20.78134        11.78144        -0.18469
C         19.56399        12.45045         0.04357
C         20.79622        14.56160         0.44986
C         19.55699        13.85763         0.32623
C         20.80808        15.95456         0.74579
C         19.57696        16.66916         0.77110
C         20.80041        18.76561         1.24380
C         19.56898        18.07938         0.98578
C         20.76245        20.20699         1.40782
C         19.60038        20.92907         1.33109
C         20.88579        23.10449         1.27603
C         19.58266        22.40450         1.67795
C         20.85515        24.56879         1.66479
C         19.65263        25.26687         1.37962
C         20.70561        27.36244         2.35393
C         19.60671        26.70216         1.54289
C         20.79702        28.85778         2.14597
C         19.62638        29.54381         1.86751
C         20.77623        31.72695         2.48631
C         19.47534        30.94078         2.44171
C         20.78697        33.19425         2.22407
C         19.60871        33.92727         1.72189
C         20.84878        36.04425         2.02203
C         19.65994        35.30441         1.60653
C         20.83685        37.47355         2.06915
C         19.67904        38.19966         1.65576
C         20.87308        40.32564         2.12473
C         19.68330        39.61631         1.73965
C         20.85466        41.76194         2.06743
C         19.60512        42.48354         1.84793
C         20.74767        44.68640         2.02540
C         19.53980        43.86515         1.89819
C         20.66406        46.04849         1.41359
C         19.48813        46.73706         1.39380
C         20.64907        48.76312         0.32891
C         19.33742        47.97849         0.50196
C         20.66445        50.23130         0.72455
C         19.42101        50.96294         0.29711
C         20.72113        53.05121         0.07002
C         19.46161        52.32392         0.03416
C         20.72131        54.43788        -0.42908
C         19.40525        55.19333        -0.62819
C         20.66823        57.36283        -0.69277
C         19.48145        56.66439        -0.58169
C         20.71459        58.78613        -0.66836
C         23.22387         3.26523        -0.14657
C         22.03925         3.94416        -0.44308
C         23.21698         6.07650        -0.32942
C         22.02447         5.33904        -0.53895
C         23.21060         7.52446        -0.44153
C         21.99869         8.22095        -0.60477
C         23.23665        10.40377        -0.96052
C         21.97529         9.65715        -0.60919
C         23.26358        11.81418        -0.38667
C         22.02241        12.47941        -0.07414
C         23.24618        14.55193         0.54835
C         22.02787        13.86099         0.30451
C         23.27467        15.93265         0.85997
C         22.04004        16.64642         0.95404
C         23.28706        18.71148         1.46654
C         22.03115        18.04880         1.24684
C         23.29537        20.10059         1.92935
C         21.99180        20.89949         1.85108
C         23.28417        22.97820         2.07997
C         22.09457        22.34979         1.76742
C         23.22058        24.41899         2.45088
C         22.01443        25.22371         2.12554
C         23.20875        27.35449         2.60864
C         22.03812        26.64258         2.30832
C         23.22729        28.78654         2.73474
C         22.04107        29.52968         2.51308
C         23.24911        31.68247         2.58780
C         22.06493        30.97730         2.50935
C         23.33074        33.13739         2.33022
C         22.08515        33.88468         2.01488
C         23.19841        35.98296         2.74576
C         22.04736        35.33929         2.23722
C         22.99091        37.33811         3.09132
C         21.97928        38.17119         2.57010
C         23.31426        40.37378         2.59325
C         22.08073        39.63435         2.50103
C         23.31451        41.78510         2.28248
C         22.05994        42.46768         2.16605
C         23.29135        44.55342         1.55937
C         22.07150        43.94066         2.09714
C         23.20009        45.86250         0.89659
C         21.89526        46.57079         0.74993
C         23.22989        48.75108         0.62192
C         21.94444        48.03015         0.41487
C         23.23486        50.23056         0.43749
C         21.93991        50.95327         0.33811
C         23.20304        53.13482         0.40548
C         21.93045        52.44085         0.39439
C         23.18730        54.60883         0.25840
C         21.92062        55.28058        -0.15809
C         23.21150        57.39788        -0.51413
C         21.97429        56.61490        -0.88548
C         23.19319        58.77958        -0.57918
C         21.92616        59.49379        -0.68378
C         23.15615        61.61142        -0.67010
C         21.95095        60.91249        -0.71563
C         24.40118         3.98388         0.07134
C         25.68197         6.11338         0.33688
C         24.40920         5.38089        -0.01012
C         25.71159         7.56176        -0.09203
C         24.46041         8.25861        -0.35704
C         25.76440        10.31830        -0.72237
C         24.48343         9.62047        -0.60325
C         25.75380        11.85253        -0.57833
C         24.46195        12.47946        -0.23083
C         25.79368        14.53812         0.57926
C         24.49348        13.78997         0.44637
C         25.76090        15.99552         0.80810
C         24.52852        16.64623         0.99756
C         25.76477        18.76546         1.48976
C         24.51580        18.05411         1.28930
C         25.76548        20.12849         1.82909
C         24.55057        20.85686         1.96648
C         25.78424        22.97282         2.32106
C         24.52200        22.24551         2.21007
C         25.75787        24.40705         2.56245
C         24.47878        25.11733         2.86923
C         25.75933        27.33705         2.83917
C         24.44209        26.64208         3.12445
C         25.90732        28.81526         3.22254
C         24.49537        29.49849         3.12585
C         25.75986        31.73767         2.68871
C         24.49538        31.00511         2.96721
C         25.75627        33.12412         2.66963
C         24.53766        33.90564         2.72628
C         25.83389        36.05717         3.00912
C         24.48195        35.29288         2.89071
C         25.82350        37.53683         2.61430
C         24.83548        38.37031         3.03668
C         25.79505        40.42122         2.27929
C         24.64495        39.75842         2.64980
C         25.85706        41.90422         2.37283
C         24.51849        42.50955         2.02469
C         25.70404        44.40845         0.80620
C         24.47250        43.83760         1.50760
C         25.64489        45.91800         0.61651
C         24.47099        46.61053         0.72785
C         25.70068        48.80688         0.68548
C         24.41256        48.06614         0.69256
C         25.72293        50.29017         0.77987
C         24.40765        51.02674         0.99856
C         25.69311        53.16002         0.42031
C         24.41895        52.47290         0.53541
C         25.72300        54.67181         0.54964
C         24.45649        55.33675         0.06159
C         25.70420        57.43104        -0.30296
C         24.44637        56.68375        -0.25684
C         25.65728        58.83702        -0.43621
C         24.43427        59.53106        -0.50784
C         24.38040        60.94387        -0.57187
C         26.91792         8.21703        -0.11738
C         28.19666        10.34324        -0.27239
C         27.01979         9.62750        -0.38883
C         28.22251        11.78938        -0.24102
C         27.01077        12.50263        -0.23621
C         28.26490        14.63108         0.27820
C         26.98583        14.00009        -0.17592
C         28.24653        15.98846         0.65856
C         26.99890        16.69432         0.87728
C         28.25918        18.73492         1.40719
C         27.01745        18.06344         1.27141
C         28.30760        20.12400         1.89986
C         27.01450        20.79751         2.34978
C         28.28610        23.05866         2.12011
C         26.99883        22.31219         2.20471
C         28.25931        24.55565         2.25530
C         26.91850        25.13667         2.57850
C         28.60029        27.63326         2.26958
C         26.84409        26.52329         2.96675
C         28.24647        28.97209         1.97558
C         27.03379        29.59390         2.45997
C         27.98213        31.72139         1.57927
C         26.94083        30.98425         2.30370
C         28.00142        33.11163         1.60008
C         27.07814        33.85118         2.54448
C         28.05528        36.02691         1.57572
C         26.78544        35.28483         2.03220
C         28.17199        37.50014         1.61343
C         27.13068        38.27217         2.36586
C         28.27168        40.36931         1.64119
C         26.94923        39.63776         1.71029
C         28.27437        41.81146         1.58376
C         27.08382        42.52936         1.74174
C         28.24811        44.69057         1.07658
C         26.97440        44.03506         1.60785
C         28.16404        45.81850         0.05150
C         26.87484        46.61584         0.14229
C         28.16206        48.88028         0.09063
C         26.88424        48.11539         0.08124
C         28.15412        50.23617         0.17717
C         26.84003        50.97967         0.02140
C         28.14393        53.15542         0.01891
C         26.87753        52.46971         0.26769
C         28.11544        54.58126        -0.20305
C         26.95901        55.31989        -0.03994
C         26.91837        56.72299        -0.26780
C         29.45013        12.49482        -0.08334
C         30.70580        14.60947         0.26244
C         29.48691        13.89986         0.15250
C         30.71511        16.00952         0.46652
C         29.47978        16.69656         0.75142
C         30.67823        18.84754         0.82103
C         29.47861        18.08890         1.04692
C         30.65223        20.25907         0.85891
C         29.53756        20.94492         1.53005
C         30.39023        23.12084         0.72698
C         29.42736        22.41046         1.40162
C         30.24061        24.59932         0.54306
C         29.22428        25.35043         1.37735
C         30.32450        27.50259         0.59866
C         29.39923        26.82970         1.45296
C         30.26109        28.90270         0.51228
C         29.16091        29.64191         1.07887
C         29.77108        31.73008        -0.24162
C         28.99258        31.01837         0.84720
C         30.05587        33.18747         0.06467
C         28.92362        33.92535         0.72515
C         30.50397        35.96735         0.86208
C         29.32443        35.20851         1.47859
C         30.56972        37.44616         0.93950
C         29.46496        38.19610         1.41630
C         30.73659        40.31144         1.26021
C         29.44375        39.62020         1.42438
C         30.70934        41.77058         1.00678
C         29.53986        42.47205         1.23892
C         30.68668        44.55793         0.34492
C         29.53200        43.93097         1.02000
C         30.63351        45.98615         0.09245
C         29.42900        46.65301         0.07773
C         30.68053        48.81671         0.20452
C         29.41302        48.12027        -0.30475
C         30.64717        50.28416        -0.09441
C         29.43444        51.02406         0.39408
C         29.32252        52.45047        -0.07047
C         31.90292        16.76186         0.32622
C         32.97866        18.94583        -0.04192
C         31.87570        18.17529         0.38126
C         32.88476        20.35089        -0.15480
C         31.70650        21.02504         0.32369
C         32.57657        23.16601        -0.47744
C         31.57932        22.45297         0.19101
C         32.32674        24.58492        -0.92244
C         31.37543        25.36831        -0.04302
C         32.62649        27.49681        -0.46983
C         31.38313        26.73728        -0.04940
C         32.40166        28.92789        -0.89927
C         31.34347        29.65247        -0.16144
C         31.88981        31.67251        -1.67600
C         31.10973        31.07456        -0.52257
C         31.91385        33.20671        -1.58882
C         31.05546        33.86985        -0.56147
C         32.34824        36.09958        -0.90367
C         31.40480        35.26653        -0.14180
C         32.59254        37.41663        -0.49993
C         31.73956        38.07673         0.46385
C         33.22001        40.20661         0.39049
C         31.95396        39.48862         0.83826
C         33.01327        41.67700         0.05368
C         31.89177        42.40705         0.42837
C         33.02627        44.51013        -0.38155
C         31.84402        43.83243         0.13338
C         33.04061        45.89418        -0.51832
C         31.88474        46.69293        -0.22311
C         31.90277        48.06855        -0.25534
C         33.90845        21.10955        -0.76016
C         34.75154        23.20929        -1.67913
C         33.75337        22.49456        -0.97234
C         34.68781        24.61712        -1.84810
C         33.57323        25.33012        -1.32067
C         34.56007        27.42324        -2.06364
C         33.55202        26.72882        -1.37716
C         34.38153        28.87244        -2.44591
C         33.31433        29.60563        -1.66771
C         34.29157        31.75757        -2.47414
C         33.24822        31.04630        -1.89173
C         34.24549        33.22220        -2.66587
C         33.02420        33.98071        -2.23043
C         34.51405        36.04256        -2.12767
C         33.07157        35.52532        -2.11217
C         34.53473        37.58832        -2.19895
C         33.68433        38.19663        -1.09309
C         35.14213        40.17936        -1.20211
C         33.95482        39.48293        -0.71365
C         35.24932        41.54566        -1.04408
C         34.14727        42.33815        -0.56061
C         34.16362        43.71722        -0.71684
C         35.75284        25.33660        -2.44970
C         36.73883        27.49183        -3.22242
C         35.67820        26.72684        -2.59642
C         36.76055        28.86517        -3.18726
C         35.70694        29.62397        -2.39808
C         36.55009        31.70885        -3.48766
C         35.52988        31.06926        -2.83314
C         36.41882        33.15255        -3.90921
C         35.33289        33.89069        -3.15951
C         36.77686        35.97422        -3.15983
C         35.36349        35.40756        -3.25565
C         36.99493        37.25663        -2.70264
C         35.96091        38.09793        -2.17726
C         36.19829        39.39016        -1.78133
C         37.82049        29.61385        -3.78639
C         38.88470        31.73395        -4.39219
C         37.75458        30.99136        -3.89190
C         38.91192        33.09794        -4.34215
C         37.76505        33.85246        -3.91431
C         37.88193        35.18504        -3.60951
O         26.61830        47.34844        -1.13541
O         16.48382        19.11018        -1.45088
O         14.55807        46.23155         2.10322
O         31.74359        35.32593         1.30667
O         24.33451        30.37171         4.28698
O         31.77957        33.68493        -2.98315
O         20.17402        54.58366        -1.75149
O         17.48247        46.65554         2.97452
O         25.32312        13.74490         1.69949
O         13.51746        29.25871         1.06059
O         31.71038        39.81407         2.24990
O         28.78792        23.74846         3.34526
O         27.76836        36.81481         0.37513
O         11.03087        28.19415        -0.20944
O         22.91988        33.43790         0.91160
O         25.80470        11.19189        -1.90602
O         20.69177        32.69609         3.61555
O         22.68254        50.57417        -0.87364
O         26.10851        49.49297         1.93665
O         23.91083        37.89160         3.97452
O         31.87938        30.79255         0.66429
O         22.46434        20.33741         3.11727
O         21.32741        48.39115        -0.88967
O         13.15505        37.50923        -2.93386
O         28.05679        27.04952         3.40071
O         14.83866        20.55118         1.46095
O         22.28516        55.29868         1.24502
O         29.35208        20.39799         2.89075
O         16.09879        31.31596        -0.79167
O         28.93448        24.97713        -0.03681
O         21.49126        44.62352         3.28791
O         23.63790        24.47705         3.88193
O         17.17001        31.62137         2.77758
O         22.39183        45.73985        -0.36166
O         29.17356        44.83684         2.18591
O         17.83826        44.24630         3.41329
H         17.36855        45.04012         3.76687
O         28.13691        34.31684        -0.44349
H         27.95577        33.49224        -0.95431
O         34.85132        35.75157        -4.56480
H         34.62364        36.71857        -4.53447
O         18.98582        47.40550        -0.79416
H         19.80858        47.44694        -1.34537
O          7.30808        34.24933        -1.43991
H          7.91105        34.85104        -0.91926
O         28.91064        31.68923        -1.41967
H         29.50056        31.58879        -2.21406
O         25.98901        35.08614         0.84390
H         26.30041        35.73097         0.16492
O         23.22021        10.53005        -2.42015
H         24.11027        10.87948        -2.67414
O         32.39300        36.05925        -3.27817
H         31.69805        35.40280        -3.52809
O         18.25316        26.65966        -1.11887
H         19.00102        26.03714        -0.99199
O         12.99922        37.85312         0.67335
H         13.41208        37.42985         1.45641
O         25.77264        54.92946         1.99169
H         25.72924        55.90078         2.11952
O         15.39239        23.27750         2.03636
H         15.14567        22.35259         2.28344
O         30.63314        48.65203         1.68572
H         31.53951        48.81184         2.02580
O         35.95929        33.16323        -5.30115
H         35.61280        34.06993        -5.47607
O         24.15241        51.08666         2.42661
H         24.84565        50.54495         2.87320
O         16.02490        39.57603        -1.98183
H         16.18336        40.50647        -2.24978
O         11.75831        39.53223        -4.45052
H         12.51586        38.91493        -4.31919
O         27.70061        33.80922         3.84497
H         27.20284        34.41327         4.44381
O         19.15223        30.63890         3.82226
H         19.35427        31.44868         4.34554
O         19.34704        32.46145        -0.07013
H         18.78961        32.59105        -0.88041
O          8.40476        31.90780        -0.68963
H          7.68667        32.59409        -0.76755
O         33.96176        28.87781        -3.83876
H         33.13259        28.36088        -3.91170
O         26.54772        39.38532         0.32608
H         26.50838        40.24569        -0.14248
O         17.94672        20.13976         2.80744
H         18.60439        19.53792         3.22028
O         10.56143        33.29221         0.22865
H          9.76971        32.68749         0.13029
O         11.37556        33.99072        -3.30389
H         10.86447        34.34219        -4.06308
O         26.31198        35.99400         4.38167
H         25.64595        36.45660         4.93693
O         26.94198        20.58415         3.79420
H         27.84409        20.76356         4.14768
O         12.31663        24.67877        -3.64672
H         13.15416        24.16816        -3.62200
O         24.32415        26.80808         4.57698
H         23.74284        26.07295         4.89175
O         34.14263        40.19628         1.51986
H         33.58446        40.26433         2.32997
O         17.45903        33.74734        -1.00906
H         17.93757        34.52771        -1.35861
O         20.92142        23.05904        -0.18634
H         21.76080        23.46606        -0.48633
O         19.46394        22.49134         3.11779
H         18.70574        21.91783         3.38196
O         22.09955        56.34714        -2.31125
H         22.99087        55.97681        -2.47939
O         16.44698        28.34533        -1.34977
H         17.10236        27.85387        -1.89673
O         19.61380         5.39379        -0.29974
H         19.71403         5.47794         0.67036
O         33.37873        27.61911         0.79002
H         34.13025        28.23168         0.63428
O         25.80778        43.77176        -0.48555
H         25.07328        44.09691        -1.04752
O         26.00772        42.17586         3.82158
H         26.10549        43.15880         3.89781
O         15.52273        28.05905         2.14650
H         14.54552        28.18840         2.21582
O         35.08778        35.63415        -0.87093
H         35.95015        36.08711        -0.75673
O         15.65373        33.59176         2.16066
H         16.10531        32.96816         2.78462
O         26.82751         5.41103        -0.16145
H         26.76088         5.37161        -1.13735
O         27.68569        38.50305         3.68704
H         27.64883        37.65456         4.18451
O         26.46311        50.82467        -1.38571
H         27.16361        51.23531        -1.93520
O         16.70114        48.99020         2.65162
H         17.17992        48.44632         3.31942
O         31.11707        31.30281        -2.86416
H         31.38343        31.93843        -3.57248
O          9.51176        35.53744        -0.49236
H          9.93956        34.89976         0.14338
O         34.00468        38.05203        -3.47509
H         33.07682        37.71745        -3.54243
O         26.76517        14.46164        -1.56430
H         27.46200        14.05750        -2.12422
O         13.37979        29.55723        -2.63081
H         14.27514        29.95781        -2.59558
O         31.57727        24.44434        -2.19481
H         30.68456        24.10102        -1.97285
O         29.72503        34.88456         2.81490
H         30.68014        34.64726         2.78949
O         36.12512        29.63559        -1.00431
H         36.99095        30.09150        -0.95082
O         16.77909        13.72014         2.06320
H         16.72644        14.63658         2.41074
O         26.30881        28.85553         4.59832
H         25.64321        28.33927         5.10713
O         28.13428        45.12973        -1.23358
H         27.73552        45.74911        -1.88448
O         29.41915        48.16581        -1.75926
H         28.53183        47.86436        -2.05956
O         20.30547        27.24201         3.76409
H         19.59213        27.89684         3.93169
O         26.74849        44.60870         2.92884
H         27.64517        44.72990         3.32664
O         29.57916        51.12462         1.86392
H         29.77471        50.20353         2.17567
O         20.65145        50.19435         2.18487
H         20.61951        51.11519         2.52116
H          6.31292        31.35766        -4.24152
H          6.25081        33.79783        -4.15615
H          8.33652        27.04118        -2.98874
H          7.32925        29.21056        -3.63143
H          7.61109        35.91159        -3.97927
H          8.81702        38.06800        -3.66004
H         10.74502        22.66277        -2.32139
H          9.63660        24.90857        -2.95252
H         10.09785        40.15111        -3.37211
H         10.99503        42.26825        -2.45862
H         12.69210        18.38065        -0.98363
H         11.71632        20.55438        -1.68988
H         11.83069        44.35022        -1.40536
H         12.75573        46.42206        -0.65014
H         14.93649        14.10032        -0.16630
H         13.79041        16.23321        -0.43944
H         13.68037        48.56099        -0.09164
H         14.81520        50.72902        -0.14233
H         17.37726         9.77561        -0.34259
H         16.15453        11.84651         0.03734
H         16.03749        52.89096        -0.14984
H         17.23282        54.98645        -0.26481
H         20.59530         5.88465        -2.03328
H         18.60448         7.65344        -0.64342
H         18.54247        57.22074        -0.43352
H         19.76811        59.34639        -0.62084
H         23.22759         2.16870        -0.07757
H         21.10496         3.38831        -0.60438
H         23.14394        62.70994        -0.70828
H         21.00072        61.46151        -0.78296
H         25.33596         3.45926         0.31414
H         25.77867         6.09875         1.46158
H         26.60026        59.40347        -0.45921
H         25.31709        61.51861        -0.53755
H         27.83527         7.65421         0.11187
H         29.13494         9.80444        -0.07129
H         29.04445        55.08030        -0.51890
H         27.85878        57.26054        -0.46352
H         30.39669        11.93650        -0.11923
H         31.65822        14.07955         0.11436
H         31.60444        50.83378        -0.11008
H         30.25470        52.99508        -0.28751
H         32.83685        16.25077         0.04973
H         33.89275        18.43886        -0.38409
H         33.96554        46.39701        -0.83806
H         32.82707        48.61306        -0.50167
H         34.81160        20.60359        -1.13149
H         35.62664        22.66210        -2.05948
H         36.14557        42.06799        -1.41138
H         35.04861        44.20685        -1.14982
H         36.63324        24.79057        -2.81918
H         37.55442        26.94644        -3.72215
H         38.02344        37.65256        -2.70944
H         37.20083        39.83191        -1.88732
H         38.69338        29.07727        -4.18926
H         39.77081        31.17190        -4.72142
H         39.83065        33.64478        -4.60296
H         38.87470        35.66207        -3.65029
