         240
 CSIRO Nanostructure Databank - Neutral Graphene Oxide Data Set
C        -10.99932         0.65603        -0.92965
C         -9.75723         1.40073        -0.71224
C         -8.55468         0.71983        -0.26858
C         -7.56112         1.43536         0.56088
C         -6.26240         0.75103         0.79987
C         -5.10518         1.42924         1.07008
C         -3.81590         0.68309         1.16626
C         -2.51350         1.40956         1.31380
C         -1.34435         0.74603         0.59274
C         -0.03177         1.46473         0.69731
C          1.19148         0.62640         0.60582
C          2.46312         1.28906         0.25021
C          3.72055         0.68920         0.78320
C          4.98810         1.43396         0.53388
C          6.21329         0.63284         0.34688
C          7.33593         1.30891        -0.36083
C          8.62043         0.54168        -0.64006
C          9.86900         1.39977        -0.44443
C         11.12614         0.67246        -0.34395
C         -9.76648         2.79007        -0.73082
C         -8.66002         3.60100        -0.26350
C         -7.60907         2.94054         0.55452
C         -6.34502         3.68647         0.87856
C         -5.08668         2.91653         1.18618
C         -3.76854         3.66969         1.18676
C         -2.48540         2.91832         1.40295
C         -1.16892         3.62443         1.14178
C          0.01914         2.82129         0.72161
C          1.31062         3.53098         0.48333
C          2.40942         2.73984        -0.23680
C          3.74004         3.47092        -0.19649
C          4.91187         2.84317         0.05170
C          6.22651         3.57965         0.15877
C          7.32345         2.79455        -0.54479
C          8.60779         3.53555        -0.92654
C          9.84281         2.75279        -0.53686
C         -8.59889         4.95336        -0.44259
C         -7.56045         5.82706         0.23131
C         -6.23381         5.10705         0.44508
C         -5.04081         5.75720         0.42130
C         -3.69066         5.03542         0.47490
C         -2.52171         5.91361         1.05000
C         -1.18098         5.11703         0.96637
C         -0.08738         5.68255         0.06472
C          1.27403         5.00114         0.20919
C          2.45873         5.67841        -0.38819
C          3.70571         4.88797        -0.73649
C          4.97464         5.66702        -0.48996
C          6.16893         5.01215        -0.30217
C          7.43296         5.71436        -0.38564
C          8.61469         4.97841        -0.47410
C         -7.39013         7.13522        -0.49938
C         -6.22191         7.83119        -0.46495
C         -5.03172         7.23062         0.19533
C         -3.72372         7.98434         0.14483
C         -2.44536         7.25951         0.32734
C         -1.27252         7.88491         0.00167
C          0.06290         7.20740         0.24027
C          1.14196         7.76262        -0.70545
C          2.46048         7.03463        -0.57711
C          3.70465         7.77382        -0.73703
C          4.94330         7.09336        -0.64137
C          6.18157         7.82428        -0.59529
C          7.39816         7.14018        -0.47171
C         -6.11078         9.17251        -0.99871
C         -4.93320         9.86144        -1.01435
C         -3.69396         9.28522        -0.56024
C         -2.48445         9.91199        -0.77215
C         -1.24388         9.26235        -0.47938
C         -0.02880         9.93946        -0.64229
C          1.22055         9.26665        -0.62172
C          2.44450         9.91087        -0.73686
C          3.68028         9.19776        -0.78008
C          4.92294         9.90841        -0.80345
C          6.12596         9.25433        -0.71168
C        -11.22682        -0.69334        -0.84424
C        -10.16446        -1.68609        -0.86435
C         -8.31793        -0.60704        -0.55998
C         -7.40924        -1.43814         0.15798
C         -6.30817        -0.74150         0.81314
C         -4.98487        -1.52178         0.81821
C         -3.77484        -0.67211         0.46713
C         -2.48694        -1.41766         0.69470
C         -1.26833        -0.74289         0.85406
C         -0.06201        -1.43328         1.06042
C          1.17354        -0.63660         1.45778
C          2.50220        -1.43389         1.41658
C          3.74682        -0.77449         0.94509
C          4.98278        -1.45698         0.91028
C          6.22434        -0.71307         0.63315
C          7.58395        -1.35538         0.91267
C          8.71466        -0.76460         0.10785
C          9.93847        -1.44250         0.02761
C         11.15328        -0.67959        -0.24072
C        -10.01299        -2.91309        -0.27689
C         -8.70296        -3.58516        -0.20361
C         -7.47990        -2.85181         0.07639
C         -6.25303        -3.59680         0.26806
C         -5.03224        -2.90907         0.38894
C         -3.76132        -3.59426         0.12211
C         -2.46111        -2.83830         0.36608
C         -1.26162        -3.62245         0.63054
C         -0.08233        -2.90524         1.18577
C          1.18773        -3.68201         1.43635
C          2.50833        -2.94215         1.53873
C          3.80973        -3.67696         1.30497
C          5.01525        -2.87294         1.01769
C          6.28505        -3.61889         0.94246
C          7.58549        -2.88720         0.87784
C          8.80462        -3.60404         0.38571
C          9.99229        -2.84251         0.18655
C         -8.65216        -4.97805        -0.26004
C         -7.43348        -5.72049        -0.14232
C         -6.24574        -5.02305         0.13753
C         -4.98562        -5.75350         0.35092
C         -3.70930        -5.04660         0.22118
C         -2.48672        -5.70856         0.13500
C         -1.25794        -4.97218         0.34689
C          0.08061        -5.62298         0.12520
C          1.19557        -5.15398         1.05758
C          2.48350        -5.90822         0.95094
C          3.80691        -5.18076         1.06827
C          5.01831        -5.83051         0.46030
C          6.24154        -4.96052         0.22303
C          7.57695        -5.81204         0.51264
C          8.79057        -4.96909         0.22706
C         -7.38809        -7.13786        -0.42215
C         -6.21111        -7.86215        -0.44285
C         -4.95596        -7.25834         0.04020
C         -3.66184        -7.85619        -0.31793
C         -2.45351        -7.13805        -0.15637
C         -1.20976        -7.77616        -0.41833
C          0.03546        -7.10937        -0.14045
C          1.23353        -7.77350        -0.31215
C          2.47850        -7.26192         0.28707
C          3.77615        -7.94452        -0.01998
C          5.02759        -7.14303         0.10410
C          6.34699        -7.96083        -0.03223
C          7.45529        -7.01047        -0.34965
C         -6.12073        -9.21959        -0.93032
C         -4.92186        -9.85945        -1.05882
C         -3.65247        -9.20405        -0.79724
C         -2.43491        -9.84940        -1.00777
C         -1.18820        -9.16709        -0.82961
C          0.02790        -9.79700        -1.10816
C          1.26471        -8.96298        -1.23528
C          2.58830        -9.66885        -1.34650
C          3.76074        -9.10773        -0.95643
C          5.04782        -9.63534        -1.39299
C          6.22141        -9.07998        -1.03808
O         -4.57944         7.99864         1.35443
O         -0.59452         5.37475        -1.26236
H         -0.16093         5.99516        -1.90738
O          1.14105        -8.34719        -2.60689
H          0.23432        -7.97466        -2.66958
O          1.79071         0.38699        -0.71934
O         -5.93033         3.45913         2.25885
O         -5.01986        -6.75592         1.41439
O          4.06983        -4.66908         2.39587
O          6.60196         3.59490         1.56341
H          5.80689         3.79330         2.10184
O         -1.67149         0.89543        -0.82955
H         -1.01040         0.39114        -1.34908
O          0.51032         7.47427         1.57696
H         -0.11389         7.06090         2.21161
O         -3.36863         4.75383        -0.91464
H         -2.41841         4.96931        -1.10491
O         -5.74118        -1.28925         2.03646
O         -2.99685        -3.05890        -1.03718
O          0.29601        -3.40676         2.54931
O          1.63814        -5.97967         2.14998
O          8.61449         0.15484        -2.04887
H          8.10011         0.84548        -2.52784
O         -8.13364         2.18396         1.68337
O          0.53561        -5.04651        -1.16573
H         -0.20201        -5.12592        -1.80845
O          0.97800        -0.18494         2.81061
H          1.20042        -0.94268         3.40124
O          7.86674        -0.97381         2.29366
H          7.44944        -1.66114         2.86481
O          8.65225         3.62827        -2.38849
H          7.92642         3.06021        -2.73640
O          0.69437         7.49720        -2.08412
H          1.43320         7.73098        -2.68582
O         -0.78670         4.55763         2.22852
O         -3.92716        -0.42766        -0.96448
H         -3.64932        -1.26087        -1.41961
O          6.80429         1.95150        -1.61366
O         -3.17317         3.54839         2.51706
O          7.53948        -6.15939         1.90592
H          7.51390        -5.31346         2.41943
O          4.38539         1.38610         1.89248
O          3.65964         4.75282        -2.20010
H          3.00111         4.04084        -2.39599
O          3.08599        -8.25305         1.22319
O          6.51869        -8.57937         1.25554
H          6.82782        -7.87722         1.87767
O         -9.04082        -1.22133        -1.58952
O          6.22094        -4.58838        -1.17071
H          6.08969        -5.39220        -1.71609
O          1.67763         4.47195         1.52574
O          7.13614        -3.50493         2.15186
O          2.66060        -2.11037         2.72285
O         -2.76961         6.21690         2.42066
H         -2.72496         5.36552         2.92274
O         -8.09640         6.15552         1.55013
H         -7.37154         6.54792         2.08188
O         -3.08688         0.70636         2.43539
O          1.98144         2.72407        -1.62933
H          1.72130         1.79014        -1.83415
H         12.11097        -1.22013        -0.23410
H         12.06226         1.24653        -0.41268
H         10.79355         3.30915        -0.49991
H          9.57299         5.51619        -0.54847
H          8.34422         7.70096        -0.50342
H          7.06680         9.82355        -0.70814
H          4.89723        11.00621        -0.86527
H          2.47498        11.01138        -0.74494
H         -0.04793        11.02271        -0.83816
H         -2.46177        10.90905        -1.23773
H         -4.89967        10.87383        -1.44360
H         -7.02226         9.63768        -1.40206
H         -8.28473         7.59328        -0.94990
H         -9.39397         5.46103        -1.01089
H        -10.66533         3.31617        -1.08774
H        -11.89485         1.29628        -0.99982
H        -12.27099        -1.04116        -0.79490
H        -10.87347        -3.41582         0.18984
H         -9.58316        -5.53640        -0.43988
H         -8.32049        -7.62811        -0.74230
H         -7.05222        -9.74025        -1.19787
H         -4.89516       -10.89829        -1.41937
H         -2.42284       -10.89353        -1.35377
H          0.03477       -10.83584        -1.47034
H          2.61324       -10.55299        -2.00315
H          5.03095       -10.49079        -2.08593
H          7.16018        -9.51215        -1.41541
H          7.72926        -6.88127        -1.41055
H          9.71300        -5.47976        -0.08702
H         10.94278        -3.37044         0.02103
