         424
 CSIRO Nanostructure Databank - Neutral Graphene Oxide Data Set
C          2.03237         2.07516        -2.63023
C          2.07563         3.46316        -2.79308
C          3.14141         1.36932        -2.17793
C          3.25352         4.19602        -2.50264
C          2.21587         6.36917        -3.19469
C          2.15559         7.71383        -3.06999
C          3.31956         5.62661        -2.63299
C          3.16809         8.44193        -2.22200
C          1.87168        10.59773        -2.31048
C          1.80993        11.96682        -2.11230
C          3.15215         9.92034        -2.53692
C          2.93276        12.79117        -2.17891
C          1.83866        15.00441        -2.83591
C          1.86988        16.36089        -2.87890
C          2.72121        14.25239        -1.86370
C          2.87318        17.12418        -2.16889
C          2.88723        18.53738        -2.15567
C          4.34976         2.05336        -1.87210
C          4.39603         3.47661        -2.03228
C          5.48777         1.35817        -1.39794
C          5.60596         4.17246        -1.74646
C          4.50662         6.34477        -2.27478
C          4.53563         7.79207        -2.28391
C          5.65621         5.60601        -1.88583
C          5.72592         8.52950        -2.11085
C          4.42626        10.71748        -2.46095
C          4.33361        12.26277        -2.42718
C          5.67546        10.01570        -2.02721
C          5.24435        12.89181        -1.40139
C          3.98593        15.00452        -1.57076
C          3.96024        16.41730        -1.55728
C          5.12013        14.28955        -1.10920
C          5.07142        17.13552        -1.03423
C          3.94315        19.24152        -1.59741
C          5.08267        18.56505        -1.05871
C          6.69619         2.03302        -1.12244
C          6.74981         3.44352        -1.35148
C          7.81392         1.35272        -0.54059
C          8.01733         4.15335        -1.17354
C          6.84895         6.32203        -1.57469
C          6.91154         7.73394        -1.80167
C          8.00484         5.61789        -1.12317
C          8.19433         8.28085        -1.57125
C          6.64319        10.83309        -1.43424
C          6.39383        12.19721        -0.96242
C          7.99595        10.39917        -1.19978
C          7.33130        12.80850        -0.10642
C          6.17182        14.99416        -0.46952
C          6.18812        16.41481        -0.50354
C          7.19617        14.24354         0.34182
C          7.36767        17.12259        -0.15950
C          6.22358        19.25241        -0.59940
C          7.39956        18.54677        -0.22139
C          8.99329         2.01073        -0.14941
C          9.19012         3.42636        -0.53603
C         10.03167         1.38037         0.54819
C         10.23811         4.22135         0.13599
C          9.12530         6.29532        -0.60183
C          9.15970         7.70116        -0.74468
C         10.24127         5.62339         0.03545
C         10.08009         8.48979         0.11510
C          8.77408        10.76987        -0.14060
C          8.44367        12.05637         0.47336
C          9.90407         9.95937         0.39917
C          9.67037        12.81027         1.03994
C          8.55204        14.93691         0.40083
C          8.65544        16.34713        -0.12367
C          9.68472        14.28437         0.82221
C          9.82794        17.11572         0.40492
C          8.61794        19.23379         0.03717
C          9.82288        18.54229         0.34045
C         11.20177         2.08723         0.98407
C         11.27653         3.54159         0.82190
C         12.23168         1.41141         1.59938
C         12.39156         4.26774         1.29141
C         11.33866         6.39375         0.56353
C         11.32281         7.80846         0.55401
C         12.45940         5.69857         1.14911
C         12.37465         8.57254         1.13049
C         11.06975        10.71669         0.92290
C         10.95975        12.08364         1.11549
C         12.27462         9.98523         1.25199
C         12.08063        12.86683         1.75321
C         10.96094        14.98416         0.93558
C         11.00228        16.40834         0.74155
C         12.14441        14.30807         1.29086
C         12.23307        17.11681         0.89158
C         11.03516        19.24226         0.56136
C         12.24820        18.55288         0.77639
C         13.43851         2.09199         2.16317
C         13.51290         3.57489         1.85633
C         14.72122         1.40459         1.75828
C         14.67565         4.25522         2.15765
C         13.58309         6.41644         1.60885
C         13.56849         7.87027         1.61583
C         14.75538         5.70545         2.08670
C         14.63320         8.56494         2.15534
C         13.40944        10.74551         1.71930
C         13.38707        12.11350         1.75371
C         14.59095        10.05427         2.35941
C         14.63025        12.88369         2.12963
C         13.37393        14.99477         1.31649
C         13.44013        16.39737         1.08798
C         14.63062        14.21630         1.40312
C         14.69894        17.10367         1.10518
C         13.48032        19.23948         0.88005
C         14.70367        18.54432         1.02455
C         15.91241         2.05213         1.94829
C         15.88677         3.45517         2.45725
C         17.17914         1.40433         1.82434
C         17.17716         4.17234         2.70994
C         15.89588         6.38784         2.50221
C         15.83540         7.88132         2.75335
C         17.15879         5.67889         2.99407
C         17.12056         8.60036         2.37515
C         15.91045        10.73670         2.04565
C         15.92021        12.10850         1.91265
C         17.14078         9.96987         2.12360
C         17.16382        12.83906         1.80549
C         15.93341        14.94076         1.26045
C         15.92374        16.41450         1.21325
C         17.18247        14.23767         1.61724
C         17.15290        17.11117         1.29221
C         15.93421        19.23587         1.07491
C         17.16191        18.54925         1.20461
C         18.38944         2.08377         1.97416
C         18.42189         3.51297         2.24787
C         19.61894         1.40349         1.74946
C         19.56369         4.24787         1.99449
C         18.39656         6.39549         2.48830
C         18.40527         7.88561         2.72887
C         19.54293         5.71358         2.09649
C         19.62349         8.57503         2.19353
C         18.39576        10.69802         2.03397
C         18.40337        12.12097         1.89778
C         19.62679         9.98580         2.04903
C         19.63036        12.83843         1.84011
C         18.39484        14.96778         1.58820
C         18.39080        16.39729         1.42840
C         19.63700        14.26935         1.71993
C         19.61571        17.10654         1.41706
C         18.39686        19.23976         1.23124
C         19.62525        18.54781         1.31758
C         20.81420         2.10161         1.57062
C         20.79215         3.56388         1.60074
C         22.02845         1.41346         1.30765
C         21.92229         4.26074         1.24202
C         20.76336         6.43107         1.82563
C         20.79396         7.82341         1.95938
C         21.91783         5.75835         1.11953
C         22.08611         8.54180         1.96936
C         20.86602        10.69607         1.83909
C         20.87755        12.12057         1.80221
C         22.09433         9.99734         1.77116
C         22.11055        12.80904         1.70956
C         20.85296        14.99177         1.67714
C         20.85509        16.39947         1.51771
C         22.14442        14.28584         1.99770
C         22.09159        17.12010         1.44124
C         20.85864        19.23851         1.31250
C         22.09711        18.54921         1.34811
C         23.20097         2.08816         0.93018
C         23.10806         3.55074         0.72085
C         24.42887         1.43559         0.73965
C         24.37282         4.31779         0.42178
C         23.28642         6.36240         1.37201
C         23.37380         7.77889         1.74685
C         24.43458         5.75504         0.81912
C         24.57613         8.55247         1.40945
C         23.30888        10.67283         1.54389
C         23.31781        12.10095         1.51629
C         24.54617         9.93955         1.35248
C         24.53754        12.79581         1.20063
C         23.35519        14.98772         1.45253
C         23.33392        16.40897         1.37458
C         24.54078        14.25597         1.16268
C         24.54805        17.13368         1.25914
C         23.33227        19.24487         1.26155
C         24.56773        18.56046         1.21482
C         25.64552         2.13390         0.48823
C         25.65255         3.56934         0.38613
C         26.87521         1.44608         0.39477
C         26.84807         4.26448         0.24403
C         25.66252         6.41764         0.73706
C         25.85924         7.78527         1.33291
C         26.79851         5.75821         0.00296
C         26.98792         8.56653         0.71683
C         25.74498        10.66912         0.99982
C         25.70075        12.08016         0.87395
C         26.94862         9.95562         0.70306
C         26.76113        12.84631         0.09702
C         25.74271        14.94138         0.95939
C         25.79648        16.37629         1.22400
C         27.04473        14.19955         0.76840
C         27.09909        17.13948         1.00643
C         25.80879        19.26206         1.04147
C         27.03388        18.61136         0.85956
C         28.09434         2.13272         0.21818
C         28.08785         3.56788         0.14263
C         29.33596         1.43953         0.10865
C         29.30971         4.27483        -0.05810
C         28.13145         6.44647         0.17754
C         28.17059         7.84576         0.33400
C         29.32211         5.71638        -0.05912
C         29.38637         8.56428         0.07036
C         28.21888        10.76815         0.58613
C         28.05614        12.04189        -0.25273
C         29.40836         9.97744         0.08572
C         29.35014        12.85194        -0.18266
C         28.06938        15.00982        -0.05812
C         28.25253        16.42632         0.43617
C         29.36905        14.24605        -0.15201
C         29.41720        17.11901         0.18814
C         28.24934        19.27790         0.57495
C         29.45482        18.57220         0.33620
C         30.53740         2.12057        -0.09564
C         30.53108         3.56047        -0.19446
C         31.79552         1.42928        -0.16943
C         31.74940         4.25794        -0.42012
C         30.55170         6.41116        -0.24967
C         30.57180         7.83750        -0.25095
C         31.75854         5.68392        -0.47914
C         31.77938         8.53783        -0.52080
C         30.57335        10.68011        -0.26827
C         30.57089        12.12627        -0.30639
C         31.78526         9.96630        -0.54983
C         31.79032        12.82127        -0.50222
C         30.59558        14.96455        -0.25391
C         30.62919        16.39674        -0.15823
C         31.80831        14.24629        -0.46664
C         31.84843        17.08720        -0.26707
C         30.68071        19.23455         0.15256
C         31.88521        18.52865        -0.11428
C         32.98623         2.09719        -0.39658
C         32.97886         3.53945        -0.58368
C         34.26349         1.41625        -0.35703
C         34.16283         4.22553        -0.87606
C         32.97112         6.38222        -0.73189
C         32.98515         7.80935        -0.75478
C         34.17969         5.65017        -0.96371
C         34.20095         8.50874        -0.98588
C         32.98753        10.66695        -0.82165
C         33.00528        12.10412        -0.78240
C         34.21146         9.93840        -1.03086
C         34.19963        12.81203        -1.01394
C         33.04026        14.94859        -0.61684
C         33.06754        16.36971        -0.50657
C         34.24365        14.22524        -0.88103
C         34.30641        17.05893        -0.58993
C         33.11744        19.19349        -0.20578
C         34.33589        18.49118        -0.41910
C         35.44459         2.06240        -0.62654
C         35.40519         3.44707        -1.23699
C         36.72288         1.40026        -0.52838
C         36.66307         4.24923        -1.03658
C         35.39455         6.34777        -1.20755
C         35.41348         7.78298        -1.21301
C         36.63795         5.60791        -1.19937
C         36.62124         8.49918        -1.40037
C         35.42553        10.62539        -1.24981
C         35.39504        12.09239        -1.58333
C         36.64252         9.90960        -1.38895
C         36.70152        12.78688        -1.31548
C         35.48802        14.92558        -0.97394
C         35.51941        16.33523        -0.80175
C         36.71876        14.19243        -1.13468
C         36.77693        17.02641        -0.79337
C         35.57231        19.15709        -0.42431
C         36.79531        18.45094        -0.57534
C         37.91266         2.08236        -0.58857
C         37.92144         3.58985        -0.52563
C         39.19330         1.41528        -0.55277
C         39.17866         4.20348        -1.08031
C         37.93738         6.38468        -1.15545
C         37.83296         7.74066        -1.87713
C         39.10430         5.56523        -1.71261
C         39.14170         8.49484        -1.74988
C         37.90459        10.61308        -1.50972
C         37.90393        12.05641        -1.33763
C         39.11557         9.90454        -1.69444
C         39.14191        12.75188        -1.19294
C         37.96375        14.88441        -1.12143
C         37.99010        16.31518        -0.94949
C         39.17879        14.14480        -1.19624
C         39.24670        17.00272        -0.85191
C         38.03175        19.11476        -0.48274
C         39.25203        18.41316        -0.59546
C         40.36319         2.09464        -0.73163
C         40.36722         3.50891        -1.07242
C         41.58464         4.20627        -1.41918
C         40.39966         6.34548        -1.67406
C         40.36971         7.75916        -1.74430
C         41.59630         5.56789        -1.64058
C         41.61072         8.52699        -1.73637
C         40.39055        10.71280        -1.88772
C         40.37152        11.91270        -0.91504
C         41.63329         9.87269        -1.77402
C         41.63482        12.72808        -0.86210
C         40.48319        14.86550        -1.47370
C         40.48558        16.31095        -0.99583
C         41.67583        14.05390        -1.03120
C         41.67642        17.02151        -0.88111
C         40.49618        19.09542        -0.46707
C         41.68191        18.40558        -0.60076
O          9.36285         8.96303         1.35416
O         16.46384         3.48366         3.81597
O         22.89246         8.09379         3.12078
O          3.90279        10.24005        -3.75987
O          8.52008         9.50895        -2.13652
O          9.13731         3.62247        -1.98808
O         23.45047         3.98746        -0.67390
O         26.74705        16.67306         2.36060
O          8.63476        12.25987         1.91805
O         15.29866        14.24089         0.10156
O         40.36190        11.27214        -3.22539
H         40.25901        10.53466        -3.86187
O         14.37430        10.29758         3.80218
H         14.86828         9.57462         4.28014
O         38.26259         6.64460         0.23921
H         37.58714         7.25915         0.59803
O         13.34590         1.95823         3.62452
H         14.17672         2.31790         4.00500
O         14.57481        13.17531         3.55225
H         14.46797        12.30278         4.00536
O         17.20063         5.80987         4.45533
H         16.68142         5.04443         4.80470
O         27.94573        11.59432        -1.62244
H         27.76286        12.39020        -2.16934
O         38.82162         5.26756        -3.13102
H         39.57936         4.74776        -3.47457
O         22.28194        14.38073         3.47573
H         21.50680        13.92500         3.86877
O         15.72305         8.04958         4.22525
H         16.63328         7.87754         4.58558
O         27.60368        13.97325         2.07422
H         27.54260        14.82340         2.57144
O          2.72730         8.33756        -0.82855
H          2.67945         7.38392        -0.60419
O          1.96548        14.26309        -0.59231
H          1.84658        15.20199        -0.33297
O         37.57525         7.56545        -3.29744
H         38.05015         6.75335        -3.60202
O         11.69867        12.97192         3.17289
H         11.67582        12.06275         3.54168
O         40.19388        11.33338         0.40860
H         40.16546        12.06564         1.05889
O         27.54420        15.17809        -1.40932
H         28.21379        15.67312        -1.92654
O          8.97123        16.16211        -1.57603
H          9.10159        17.05781        -1.95692
O         21.68094         6.04695        -0.31300
H         22.27931         5.43294        -0.81468
O          4.75486        12.74544        -3.74315
H          4.45692        12.06840        -4.39299
O         37.94341         3.91261         0.91623
H         38.13634         4.88228         0.98011
O         35.32081         3.21478        -2.69390
H         34.47114         2.75510        -2.86461
O         35.21224        12.15319        -3.05477
H         34.41678        11.62100        -3.27054
O         26.08509        13.15747        -1.14856
H         25.71041        12.32261        -1.50043
O         18.50708         8.06053         4.22705
H         18.70393         7.17502         4.61126
O         28.53216        11.19888         1.93715
H         28.50676        10.41467         2.52416
O         26.29019         7.56331         2.74886
H         25.47632         7.47480         3.29200
O         40.58120        14.94910        -2.93390
H         39.74222        15.33197        -3.26624
O          6.68580        14.22844         1.72258
H          7.24331        13.57580         2.21461
O         26.49108         5.91646        -1.43226
H         27.16810         5.41431        -1.93374
H          1.10267         1.53666        -2.86256
H          1.17364         3.98110        -3.14487
H          3.09343         0.27810        -2.05482
H          1.43108         5.83627        -3.74963
H          1.32483         8.27909        -3.51612
H          0.97508         9.98317        -2.15026
H          0.83930        12.42713        -1.87463
H          1.06977        14.44575        -3.38961
H          1.14734        16.91006        -3.50229
H          2.04943        19.08386        -2.61346
H          5.42572         0.27161        -1.23865
H          3.93275        20.34111        -1.60530
H          7.70508         0.28246        -0.30879
H          6.24598        20.35157        -0.63153
H          9.95445         0.30714         0.77863
H          8.63320        20.33179        -0.01721
H         12.15341         0.32350         1.74669
H         11.04025        20.34071         0.50534
H         14.70226         0.34656         1.45762
H         13.49161        20.33756         0.81311
H         17.19682         0.33821         1.55389
H         15.93700        20.33339         1.00036
H         19.60732         0.30971         1.63339
H         18.40011        20.33782         1.16525
H         22.04187         0.31617         1.38801
H         20.85687        20.33662         1.24342
H         24.47014         0.34280         0.86265
H         23.32252        20.34305         1.19787
H         26.88178         0.34778         0.45973
H         25.77718        20.36018         0.97940
H         29.34074         0.34177         0.18498
H         28.26360        20.37791         0.55508
H         31.80439         0.33849        -0.02296
H         30.71873        20.33013         0.24779
H         34.27915         0.36689        -0.02294
H         33.15095        20.28552        -0.07462
H         36.73054         0.30545        -0.39885
H         35.60114        20.24615        -0.27053
H         39.20803         0.32463        -0.40491
H         38.05045        20.19960        -0.30011
H         41.32426         1.56060        -0.70477
H         42.53171         3.64798        -1.41245
H         42.56915         6.06114        -1.77728
H         42.56491         7.98303        -1.69322
H         42.60110        10.39563        -1.80035
H         42.55156        12.19664        -0.56040
H         42.64312        14.56907        -0.93063
H         42.64093        16.51551        -1.02295
H         40.49555        20.17635        -0.26616
H         42.64231        18.93174        -0.50866
