         272
 CSIRO Nanostructure Databank - Neutral Graphene Oxide Data Set
C        -10.76641         0.70194        -1.32469
C         -9.59961         1.51257        -0.90932
C         -8.46104         0.82105        -0.15749
C         -7.09391         1.37470        -0.25038
C         -5.99893         0.63553         0.39755
C         -4.72551         1.32516         0.63356
C         -3.69923         0.75209         1.32867
C         -2.47310         1.52020         1.73832
C         -1.15757         0.79683         1.84723
C          0.20250         1.54689         1.92321
C          1.31731         0.83193         1.07877
C          2.67639         1.55029         1.29197
C          4.00056         0.80713         0.92135
C          4.86543         1.54858        -0.09169
C          6.04734         0.81703        -0.64943
C          7.30254         1.57248        -0.97629
C          8.58125         0.92354        -0.47337
C          9.83311         1.65985        -1.03803
C         11.07776         0.87475        -0.64096
C         -9.24502         2.70569        -1.67653
C         -8.00851         3.27807        -1.57109
C         -6.93002         2.61172        -0.85846
C         -5.61888         3.29537        -0.80174
C         -4.53178         2.67998         0.05046
C         -3.46075         3.54594         0.62871
C         -2.49642         3.05033         1.68254
C         -1.16083         3.72087         1.29693
C          0.13711         3.01160         1.45623
C          1.38550         3.86149         1.74283
C          2.69206         3.06374         1.38513
C          3.89057         3.78297         0.77252
C          4.98842         3.04587         0.07050
C          5.87081         3.72045        -0.98756
C          7.26808         3.06495        -1.02365
C          8.50347         3.74997        -0.52117
C          9.69773         3.10137        -0.53327
C         -7.74378         4.54126        -2.37675
C         -6.70970         5.45757        -1.75796
C         -5.56054         4.76464        -1.11364
C         -4.64344         5.62327        -0.29136
C         -3.58947         5.03694         0.59467
C         -2.38757         5.84815         0.93266
C         -1.20129         5.22419         1.23180
C          0.06754         5.95985         1.27781
C          1.27366         5.29646         1.23558
C          2.54542         6.01744         0.97555
C          3.77525         5.26882         0.54236
C          4.69373         5.92974        -0.45992
C          6.00447         5.26818        -0.94729
C          7.18193         5.92564        -0.24220
C          8.32134         5.05307         0.25588
C         -6.64198         6.77773        -2.05238
C         -5.47272         7.61743        -1.68698
C         -4.46735         7.03755        -0.74032
C         -3.69733         7.94330         0.17905
C         -2.63732         7.34019         1.13613
C         -1.33441         8.16893         1.15752
C         -0.01502         7.46138         1.30330
C          1.22699         8.25336         1.02543
C          2.47237         7.50220         0.72805
C          3.51113         8.20506        -0.08154
C          4.68711         7.41298        -0.58760
C          6.03796         8.11706        -0.83759
C          7.16298         7.27722        -0.18713
C         -5.49749         9.09110        -1.86326
C         -4.57169         9.88243        -1.29061
C         -3.66965         9.39411        -0.20981
C         -2.45612        10.16170         0.10715
C         -1.32482         9.57753         0.63999
C         -0.10129        10.32316         0.62762
C          1.15618         9.70471         0.68651
C          2.36801        10.39986         0.52637
C          3.56692         9.69978         0.03344
C          4.92901        10.27956        -0.03088
C          6.02093         9.55023        -0.32892
C        -10.90245        -0.60101        -1.01446
C         -9.87816        -1.35481        -0.25779
C         -8.61803        -0.63592         0.13834
C         -7.34818        -1.41530         0.28078
C         -6.17338        -0.67006         0.82420
C         -5.07376        -1.44451         1.46277
C         -3.75719        -0.68786         1.82412
C         -2.48608        -1.40761         1.32709
C         -1.18478        -0.66240         1.41990
C          0.10034        -1.42258         1.57925
C          1.38132        -0.66941         1.39868
C          2.57868        -1.43896         0.89616
C          3.82591        -0.68457         0.56316
C          4.88427        -1.31477        -0.31454
C          6.23715        -0.63903        -0.24803
C          7.35871        -1.30319        -1.04669
C          8.63151        -0.54778        -0.87742
C          9.84093        -1.29668        -0.36654
C         11.09991        -0.46661        -0.52622
C         -9.83721        -2.83131        -0.39851
C         -8.74431        -3.55713        -0.08676
C         -7.43299        -2.90235         0.22969
C         -6.46775        -3.73721         1.06484
C         -5.13226        -2.97078         1.39337
C         -3.80239        -3.68810         1.19535
C         -2.50000        -2.92535         1.19950
C         -1.22413        -3.67846         1.53995
C          0.09517        -2.93516         1.47080
C          1.28106        -3.67137         0.90911
C          2.38173        -2.82805         0.32430
C          3.57476        -3.53071        -0.24401
C          4.85034        -2.78030        -0.56540
C          6.17373        -3.49985        -0.60811
C          7.36129        -2.82144        -1.28100
C          8.68319        -3.48961        -0.88792
C          9.82121        -2.77957        -0.69840
C         -8.79205        -5.07277        -0.09367
C         -7.43060        -5.67890        -0.36211
C         -6.31061        -5.14042         0.47572
C         -4.98813        -5.82346         0.46300
C         -3.77250        -5.20504         1.12264
C         -2.44854        -5.90622         1.03546
C         -1.19114        -5.18289         1.48625
C          0.18416        -5.92621         1.41851
C          1.01350        -5.07895         0.30816
C          2.28953        -5.73058        -0.29224
C          3.60794        -5.02320        -0.12200
C          4.88633        -5.73933        -0.39363
C          6.19145        -4.98171        -0.54093
C          7.40066        -5.75823        -1.09763
C          8.72027        -5.02119        -0.73740
C         -7.28986        -6.82101        -1.07180
C         -5.95808        -7.44003        -1.30141
C         -4.78229        -6.88998        -0.56515
C         -3.51867        -7.70764        -0.49629
C         -2.31030        -7.13055         0.15855
C         -1.11713        -8.01865         0.36187
C          0.09498        -7.40988         1.01229
C          0.88710        -8.48797         1.74151
C          2.39675        -7.13312        -0.72846
C          3.24297        -8.24797        -0.79199
C          5.02120        -7.06327        -1.13741
C          6.15357        -7.86406        -0.52118
C          7.33123        -7.18078        -0.52979
C         -5.82939        -8.83388        -1.81224
C         -4.78883        -9.62508        -1.50078
C         -3.70030        -9.22161        -0.52336
C         -2.37908        -9.98126        -0.74036
C         -1.24557        -9.49542         0.15939
C         -0.16685       -10.29431         0.38682
C          1.08305        -9.70924         0.87732
C          2.30400       -10.08108         0.41696
C          3.47219        -9.10137         0.44932
C          4.83530        -9.77033         0.44821
C          5.99348        -9.19840         0.05179
O          4.88877        -7.03235        -2.38922
O          3.69975         5.85772         1.87943
O         -2.50846        -7.02763        -1.29366
O          8.00807        -0.66834        -2.19251
O         -1.85602        -0.83527         0.13797
O         -4.14438         7.10027        -2.15377
O          7.39908         2.25945        -2.24508
O         -4.86935         5.50890         1.14296
O          7.17264        -3.04184        -2.69002
H          7.64136        -2.31671        -3.16374
O          2.27015         8.11030         2.05222
O         -5.38938        -2.27761         2.64549
O          1.08293        -8.48705         2.94002
O         -5.97114        -6.15903         1.48941
O          1.11991        -3.50761         2.33136
O         -6.91063        -2.17386        -0.92670
O         -1.94323         1.07134         3.03018
O         -5.04003        -6.46885        -1.94046
O         -3.32970        -6.05934         2.20575
O          3.03421         9.00462        -1.20019
O          5.18154         3.48566         1.43517
O          4.59388        -1.81754        -1.63478
O         -0.70204         8.02090         2.46451
O         -0.45458         3.13824         0.12978
O          6.50560        -4.17284         0.64387
O         -3.14613        -3.26363        -0.06017
O          4.85504         1.05300        -1.44547
O         -5.02428         3.77949        -2.05952
O         -3.18708         7.39217         2.46366
H         -3.84666         8.12279         2.49084
O          2.11741        -6.20853        -1.71312
O          3.70049        -1.43662         1.82713
O          4.08131         6.55688        -1.62394
O          0.57904         1.56668         3.29911
H          0.61459         0.63503         3.62262
O          8.58018         1.10176         0.95374
H          9.18368         0.41872         1.34323
O         -1.37480        -4.48490         2.74967
O          0.90283        -0.99659         2.73208
O         -3.66500        -0.64091         3.25548
H         -4.21977        -1.36036         3.63540
O          2.93943         2.21755         2.54727
O          1.01585         0.89064        -0.32217
H          0.45463         1.67351        -0.53357
O         -4.51318         8.90018         0.92097
O          2.48424        -3.04896        -1.09963
O         -9.63219        -0.92787         1.13789
O          3.27335        -8.95863        -1.96774
H          3.47702        -8.32552        -2.69842
O         -9.41095         1.67127         0.53790
O          0.09340        -4.85443        -0.76301
H          0.30364        -5.48718        -1.49129
O          4.37412        -5.63689         0.96408
O          6.24794         5.61242        -2.29981
O         -2.61583       -11.37065        -0.55400
H         -3.11668       -11.46463         0.28522
O         -7.25362         4.16495        -3.67478
H         -6.32565         3.85232        -3.55294
O          6.72695        -0.76265         1.10987
H          6.17974        -0.18105         1.70555
O         -3.22697         2.85450        -0.61908
O          5.17824         3.45532        -2.21157
H          5.51573         4.13562        -2.85392
O          9.89652         1.63260        -2.47297
H          9.02552         1.94394        -2.82411
O          4.81766         0.81169         2.11386
H          4.32796         0.33506         2.82076
O         -7.17012        -3.95842         2.30841
H         -6.94620        -3.22410         2.92704
O          0.80624        -5.92168         2.67898
H          0.41068        -5.21181         3.23584
O          0.06108        -7.55955        -0.43144
O         -4.14357        -9.60342         0.80870
H         -5.03499        -9.22911         0.97303
O          9.06161        -5.32035         0.62078
H          8.35191        -4.94292         1.18832
O         -2.90069         3.54507         2.95932
H         -2.49847         2.97002         3.64857
O          6.29811         8.21920        -2.23899
H          6.24779         7.28319        -2.59172
O          3.36756        -8.20452         1.55669
H          3.47489        -8.69386         2.39865
O          7.34138        -5.80995        -2.52815
H          6.50613        -6.25753        -2.80685
O          1.40284         4.08979         3.16223
H          1.76550         3.28172         3.59696
O         -9.24410        -5.53336         1.18820
H         -8.60581        -5.20726         1.86655
O          8.04258         4.71491         1.62722
H          7.20068         4.20812         1.67661
O          9.63958        -1.31625         1.10361
H          8.72606        -1.64318         1.28005
H         12.05951        -0.97855        -0.34983
H         12.03639         1.41899        -0.65542
H         10.58324         3.60731        -0.11423
H          9.27635         5.63462         0.25482
H          8.01550         7.82028         0.25275
H          6.99867        10.05724        -0.32540
H          5.04102        11.33536         0.26078
H          2.35897        11.50181         0.50685
H         -0.15584        11.39490         0.38106
H         -2.38631        11.18951        -0.28249
H         -4.54236        10.95843        -1.51914
H         -6.22006         9.51028        -2.57935
H         -7.46285         7.25720        -2.60806
H         -8.70673         5.08906        -2.53144
H         -9.99727         3.14560        -2.34909
H        -11.52772         1.19901        -1.94500
H        -11.77306        -1.16332        -1.38450
H        -10.76528        -3.34256        -0.69888
H         -9.53109        -5.42763        -0.85447
H         -8.16231        -7.26890        -1.57222
H         -6.61820        -9.20440        -2.48538
H         -4.73849       -10.64834        -1.90379
H         -2.05021        -9.82907        -1.80224
H         -0.18422       -11.34185         0.04835
H          2.38937       -10.93934        -0.26919
H          4.88487       -10.77990         0.88601
H          6.92695        -9.76748         0.19518
H          8.24336        -7.63327        -0.10801
H          9.53594        -5.43652        -1.38049
H         10.74522        -3.33382        -0.46216
