         732
 CSIRO Nanostructure Databank - Neutral Graphene Oxide Data Set
C         22.66514        24.74511        -1.74654
C         21.65647        25.68023        -2.00494
C         22.70423        27.37872        -0.50447
C         21.71352        27.00091        -1.58234
C         22.80230        28.88340        -0.24056
C         22.03291        29.50976         0.76678
C         23.13132        31.66137         0.32437
C         22.13421        30.88055         0.96640
C         23.20106        33.09649         0.42140
C         22.12816        33.84116         0.98227
C         23.15725        35.92443         0.26525
C         22.08280        35.20967         0.86401
C         23.09684        37.35198         0.09222
C         21.87774        38.06949         0.26354
C         22.99114        40.20565        -0.18846
C         21.82188        39.42930         0.09092
C         22.93914        41.62585        -0.14054
C         21.78184        42.33758         0.28204
C         22.97572        44.47482         0.22593
C         21.77697        43.70976         0.38771
C         22.94536        45.94511         0.28365
C         21.77357        46.66334         0.00055
C         23.00925        48.73517         0.16085
C         21.81292        48.05822        -0.05065
C         25.16004        23.33680        -2.44866
C         25.23442        24.53760        -1.74553
C         23.98206        25.18286        -1.25706
C         25.35741        27.25650        -1.06528
C         24.06088        26.61635        -0.76160
C         25.44678        28.58188        -1.48825
C         23.68190        29.70501        -0.93369
C         25.28589        31.65497        -0.97148
C         24.05710        31.01358        -0.54266
C         25.40926        33.03570        -0.72763
C         24.30239        33.77646        -0.15949
C         25.46867        35.93497        -0.59660
C         24.30973        35.20769        -0.15618
C         25.43831        37.35031        -0.62567
C         24.25757        38.06306        -0.31679
C         25.45129        40.22005        -0.51396
C         24.23413        39.51393        -0.39874
C         25.48142        41.67963        -0.60724
C         24.12995        42.42142        -0.44835
C         25.46544        44.61306        -0.15423
C         24.16280        43.83191        -0.08194
C         25.32588        45.74091         0.90053
C         24.15639        46.62648         0.51592
C         25.45331        48.74968         0.70377
C         24.20252        48.03434         0.45304
C         25.58471        50.10750         0.49212
C         27.57637        23.22202        -2.49217
C         26.33402        22.69659        -2.84211
C         27.74160        24.44841        -1.78616
C         26.51571        25.11864        -1.46053
C         27.80673        27.21767        -1.16363
C         26.57078        26.51275        -1.11375
C         27.78837        28.64416        -1.10340
C         26.59341        29.36266        -1.29491
C         27.80359        31.60695        -1.43223
C         26.48900        30.86502        -1.43553
C         27.81232        33.07662        -1.28161
C         26.63868        33.77507        -1.01546
C         27.87819        35.94952        -1.14578
C         26.65644        35.21564        -0.94306
C         27.90194        37.32342        -1.04192
C         26.62920        38.11285        -1.13696
C         27.90344        40.23589        -0.57552
C         26.70338        39.53560        -0.62473
C         27.94887        41.65401        -0.28438
C         26.73429        42.38943        -0.28051
C         27.95518        44.39474         0.35766
C         26.73687        43.77064         0.02187
C         27.93004        45.78710         0.87425
C         26.63341        46.48829         1.14227
C         27.95661        48.71187         1.23776
C         26.61711        47.99534         1.21058
C         27.99930        50.15605         0.93490
C         26.81592        50.80448         0.64122
C         30.54074        20.02033        -1.11418
C         29.52923        20.59734        -1.86679
C         30.45645        22.84749        -1.45722
C         29.52162        21.98955        -2.05155
C         30.34639        24.34372        -1.62379
C         29.03118        25.09331        -1.53170
C         30.29733        27.23518        -1.07480
C         29.05158        26.47451        -1.24980
C         30.30554        28.64645        -0.89011
C         29.03233        29.37933        -0.82046
C         30.35016        31.55945        -0.98107
C         29.04062        30.88022        -0.97249
C         30.37954        33.00730        -1.30149
C         29.09286        33.75285        -1.56731
C         30.40403        35.92579        -1.27811
C         29.10510        35.27284        -1.72549
C         30.41742        37.26995        -1.03030
C         29.17331        38.06514        -1.16499
C         30.42823        40.24117        -0.51908
C         29.17696        39.54479        -0.87401
C         30.44144        41.60261        -0.26072
C         29.19402        42.33542        -0.11733
C         30.47231        44.38654         0.53593
C         29.21002        43.70955         0.25232
C         30.40201        45.78661         0.92136
C         29.19451        46.55312         0.86826
C         30.44014        48.66644         1.21246
C         29.21053        47.93804         1.09350
C         30.43743        50.09439         1.33950
C         29.26445        50.83551         1.15201
C         30.46098        52.94904         1.51173
C         29.29508        52.26725         1.27907
C         32.82405        18.85728         0.35648
C         32.82436        20.17535        -0.14775
C         31.63362        20.80835        -0.69390
C         32.83169        22.97616        -0.70440
C         31.61309        22.21604        -0.91663
C         32.79714        24.37058        -0.77884
C         31.60566        25.10617        -1.25441
C         32.73280        27.30067        -0.85332
C         31.54080        26.56873        -1.01754
C         32.75752        28.70637        -0.78773
C         31.51017        29.38647        -0.78736
C         32.77443        31.55339        -0.47856
C         31.50089        30.83999        -0.77195
C         32.81487        33.05343        -0.59414
C         31.61242        33.78698        -1.05039
C         32.95403        35.86763        -1.30362
C         31.63089        35.14974        -1.15544
C         32.93316        37.30879        -0.87921
C         31.65820        37.95791        -0.61242
C         32.95035        40.17912        -0.58629
C         31.67338        39.46490        -0.38711
C         32.89664        41.61977        -0.53798
C         31.71024        42.31287        -0.20109
C         32.99682        44.34113         0.26247
C         31.71433        43.70393         0.22932
C         33.27537        45.50952         1.00823
C         31.49278        46.52041         1.46315
C         32.96137        48.57856         1.54356
C         31.63124        47.91616         1.42027
C         32.97255        50.07580         1.50878
C         31.68017        50.77441         1.88078
C         32.91905        52.96227         1.63790
C         31.71039        52.26881         1.63734
C         32.98540        54.40196         1.83338
C         35.24917        18.91625         0.67118
C         33.99277        18.26800         0.81330
C         35.27568        20.20396         0.11256
C         34.06107        20.88098        -0.19543
C         35.32963        22.97885        -0.52558
C         34.06585        22.27806        -0.49450
C         35.32400        24.41844        -0.66221
C         34.03526        25.11841        -0.52678
C         35.23115        27.28781        -1.21763
C         34.01933        26.59852        -0.64484
C         35.27068        28.74658        -0.85806
C         34.03699        29.42852        -0.72563
C         35.28648        31.54318        -0.46477
C         34.05838        30.82876        -0.56024
C         35.29259        32.96407        -0.38066
C         34.12497        33.73806        -0.59615
C         35.35152        35.88481        -0.60382
C         34.14845        35.13799        -0.73247
C         35.36784        37.27342        -0.79582
C         34.13093        38.02328        -0.84568
C         35.40707        40.17759        -1.25720
C         34.13120        39.47661        -0.81417
C         35.44243        41.66238        -0.95062
C         34.13490        42.34636        -0.86019
C         35.45368        44.48204        -0.31722
C         34.14484        43.82945        -0.49835
C         35.45540        45.84676         0.06934
C         34.27584        46.42455         0.66269
C         35.35634        48.68898         0.56752
C         34.24172        47.83806         1.11668
C         35.37208        50.15722         0.83967
C         34.13641        50.79286         1.37799
C         35.35953        52.94380         1.28265
C         34.16662        52.24741         1.45753
C         35.31595        54.42341         0.99307
C         34.12809        55.08999         1.63579
C         37.64004        16.54842         2.38449
C         36.49231        17.06546         1.77771
C         37.72562        19.06629         1.11449
C         36.49007        18.32234         1.17029
C         37.78490        20.31216         0.46267
C         36.58846        20.80398        -0.32285
C         37.80599        23.08354        -0.25254
C         36.53094        22.30051        -0.39794
C         37.76110        24.36589        -1.05647
C         36.50109        25.13738        -0.85971
C         37.72082        27.26605        -1.10384
C         36.51406        26.55220        -0.97562
C         37.74107        28.71169        -1.03438
C         36.50971        29.42466        -0.81791
C         37.79247        31.50720        -0.49893
C         36.54905        30.83697        -0.56461
C         37.86297        32.89410         0.10283
C         36.54142        33.66302        -0.01670
C         37.87058        35.86979        -0.08884
C         36.55245        35.16196        -0.11376
C         37.87884        37.33647        -0.38372
C         36.67086        37.98189        -1.02592
C         37.92094        40.12740        -1.06899
C         36.64872        39.46707        -0.78713
C         37.93896        41.66290        -1.07398
C         36.62974        42.36225        -0.87906
C         37.89886        44.47561        -0.39065
C         36.66315        43.79301        -0.57186
C         37.88729        45.84412        -0.05093
C         36.68086        46.53876         0.13605
C         37.92556        48.75210         0.59682
C         36.66668        48.00998         0.29316
C         37.90961        50.17275         1.02035
C         36.66427        50.87847         0.98333
C         37.85346        53.00746         1.37856
C         36.63387        52.26788         1.20131
C         37.81465        54.39882         1.52609
C         36.61972        55.13775         1.25483
C         37.89084        57.22164         1.04050
C         36.67442        56.50489         1.02061
C         39.96689        15.55017         3.82597
C         40.02234        16.74233         3.08307
C         38.84563        17.26376         2.40367
C         40.15331        19.21606         1.63311
C         38.91410        18.52319         1.72946
C         40.24946        20.42284         0.85880
C         39.03174        21.00048         0.29467
C         40.32940        22.87085        -0.75998
C         39.05753        22.24889        -0.34114
C         40.34156        24.29832        -1.29414
C         39.01691        25.07648        -1.46089
C         39.98506        27.38070        -1.84068
C         38.93013        26.57650        -1.43148
C         40.17481        28.74513        -1.46306
C         38.96551        29.42786        -1.09732
C         40.26904        31.51890        -0.85130
C         39.00622        30.83348        -0.80436
C         40.28394        32.95224        -0.63118
C         39.08510        33.68041        -0.35897
C         40.31906        35.80939        -0.52489
C         39.11044        35.08498        -0.29557
C         40.33773        37.25010        -0.62064
C         39.17375        37.99766        -0.65705
C         40.39756        40.14181        -0.68215
C         39.19386        39.42467        -0.83364
C         40.38657        41.58566        -0.55541
C         39.20110        42.31406        -0.70053
C         40.41493        44.40727        -0.00443
C         39.22708        43.82197        -0.73369
C         40.40103        45.76889         0.33852
C         39.12465        46.50290         0.43255
C         40.39373        48.67881         1.12443
C         39.13618        47.93480         0.88195
C         40.35396        50.02643         1.42230
C         39.12195        50.79745         1.31518
C         40.28259        52.90702         2.14820
C         39.20282        52.31476         1.21409
C         40.36557        54.44245         2.01090
C         39.04759        55.18117         1.79165
C         40.34366        57.28734         1.44722
C         39.08000        56.59660         1.38605
C         40.38194        58.69541         1.43713
C         42.30081        15.75394         4.41560
C         41.09696        15.06432         4.48491
C         42.40497        16.95656         3.68204
C         41.25191        17.46228         3.01038
C         42.55998        19.38762         2.17024
C         41.32821        18.68802         2.26366
C         42.63823        20.60224         1.40805
C         41.47211        21.08929         0.73079
C         42.76473        23.12561        -0.00441
C         41.63806        22.16638        -0.32882
C         42.76053        24.45283        -0.46221
C         41.62497        25.04147        -1.12130
C         42.83330        27.23309        -1.30439
C         41.80221        26.30725        -1.65286
C         42.70711        28.64064        -1.44173
C         41.46385        29.37736        -1.43154
C         42.72658        31.52715        -1.17115
C         41.48491        30.81708        -1.16591
C         42.76009        32.94633        -0.87464
C         41.51220        33.66657        -0.68439
C         42.78833        35.80863        -0.56988
C         41.52994        35.07840        -0.64016
C         42.82365        37.16800        -0.57327
C         41.62062        37.97436        -0.95676
C         42.78415        40.07512        -0.06793
C         41.62937        39.42031        -0.48889
C         42.80184        41.50552         0.08302
C         41.62747        42.23816        -0.17309
C         42.74478        44.23517         0.75889
C         41.60431        43.64563         0.13106
C         42.53667        45.51462         1.32952
C         41.51381        46.38908         0.95603
C         42.87009        48.57086         1.61936
C         41.67790        47.91701         0.86852
C         42.88638        50.05801         1.31116
C         41.63768        50.73659         1.72671
C         42.84419        52.96202         1.42041
C         41.65252        52.22327         1.92499
C         42.80010        54.38132         1.31262
C         41.59875        55.12202         1.57457
C         42.79105        57.25781         1.19138
C         41.57369        56.53871         1.42460
C         42.78097        58.66401         1.19809
C         41.59240        59.37618         1.35971
C         44.82528        17.20919         4.24818
C         43.65705        17.67624         3.58986
C         44.98696        19.55134         2.69873
C         43.73438        18.87032         2.82230
C         45.05699        20.76826         1.94324
C         43.87751        21.29527         1.32171
C         45.15530        23.22875         0.50475
C         43.94698        22.56120         0.60670
C         45.21741        24.50265        -0.22020
C         43.97141        25.23900        -0.45975
C         45.26798        27.34646        -0.77141
C         44.03186        26.58332        -0.83569
C         45.25601        28.72336        -1.05597
C         44.01739        29.37847        -1.64729
C         45.18962        31.53325        -1.38438
C         43.97629        30.85009        -1.35053
C         45.16510        33.00142        -1.35153
C         43.96164        33.63546        -0.81411
C         45.30509        35.80595        -0.60477
C         44.04248        35.03083        -0.25273
C         45.32759        37.17193        -0.31878
C         44.03570        37.84481        -0.05620
C         45.32349        39.98021         0.63879
C         43.99467        39.28610         0.30842
C         45.25992        41.48545         0.47386
C         44.05834        42.18989         0.41179
C         45.29285        44.33590         0.83034
C         44.04780        43.60687         0.72714
C         45.38612        45.77355         1.00238
C         44.36296        46.55770         1.55947
C         45.30034        48.61182         0.79982
C         44.18948        47.91529         1.28662
C         45.16576        50.03256         0.32496
C         43.99422        50.76985         0.95807
C         45.16008        52.94237         0.57246
C         43.99792        52.24004         0.97502
C         45.18556        54.36584         0.61876
C         43.99423        55.09016         0.94321
C         45.18647        57.18787         0.55067
C         44.00510        56.51597         0.91740
C         46.02605        17.87580         4.14810
C         47.41464        19.72371         3.21045
C         46.14992        19.05472         3.36472
C         47.47877        20.87042         2.38342
C         46.31821        21.41864         1.81208
C         47.66600        23.34906         0.79297
C         46.34638        22.84048         1.32484
C         47.72736        24.60668         0.26043
C         46.51152        25.25057        -0.27450
C         47.69919        27.42011        -0.36860
C         46.48854        26.70899        -0.43988
C         47.70283        28.81000        -0.67381
C         46.47407        29.44991        -1.00503
C         47.68099        31.56793        -1.37436
C         46.47271        30.86402        -1.30599
C         47.69638        32.98707        -1.90738
C         46.41659        33.77612        -1.58655
C         47.67258        35.90997        -1.18893
C         46.48903        35.17558        -1.07339
C         47.72395        37.29135        -0.82387
C         46.52179        37.94930        -0.41448
C         47.73861        40.04280        -0.09757
C         46.52957        39.33951        -0.05959
C         47.83406        41.45809         0.36186
C         46.52303        42.20433         0.66334
C         47.75998        44.37578         0.39689
C         46.53238        43.67301         0.59620
C         47.78416        45.80258         0.41466
C         46.56520        46.50829         0.69591
C         47.79310        48.69537         0.85515
C         46.52048        47.92298         0.69249
C         47.68949        50.14168         0.41280
C         46.46384        50.78798         0.34152
C         47.66365        52.97623         0.12111
C         46.35934        52.23778        -0.04590
C         47.65442        54.37910         0.17013
C         46.38845        55.08897         0.31805
C         46.35127        56.48813         0.26444
C         49.81048        19.98474         3.77943
C         48.61185        19.31760         3.89498
C         49.99704        21.07413         2.86552
C         48.82000        21.41087         2.03372
C         50.16726        23.38374         1.12697
C         48.90733        22.64134         1.16185
C         50.23954        24.54111         0.17555
C         48.96182        25.35083         0.13333
C         50.20832        27.49901         0.07842
C         48.93822        26.70559        -0.10128
C         50.18458        28.88404        -0.52574
C         48.95107        29.53770        -0.76274
C         50.17967        31.62307        -1.23860
C         48.93838        30.91066        -1.15513
C         50.15983        33.07657        -1.46748
C         48.95545        33.74538        -1.57090
C         50.20037        35.97021        -1.58836
C         48.89758        35.21737        -1.66533
C         50.21530        37.36178        -1.10202
C         48.96137        38.02220        -0.80645
C         50.21706        40.11823        -0.27251
C         48.94729        39.38272        -0.44708
C         50.21578        41.59375        -0.33668
C         49.01663        42.26161        -0.01251
C         50.19769        44.41024        -0.14639
C         48.99005        43.67849         0.08485
C         50.20494        45.83693        -0.05451
C         48.98498        46.53525         0.20179
C         50.18906        48.67126         0.19906
C         49.00460        47.96527         0.32544
C         50.20623        50.13995         0.55597
C         48.91155        50.85233         0.26577
C         50.13858        52.99184         0.05598
C         48.90276        52.26838         0.12017
C         50.09547        54.39713         0.08277
C         48.88867        55.07546         0.16959
C         52.38475        21.48908         3.49004
C         51.20516        21.76203         2.68546
C         52.56410        23.55258         1.55806
C         51.30740        22.89173         1.76115
C         52.63163        24.80258         0.86505
C         51.47222        25.36950         0.32359
C         52.68561        27.49885        -0.25429
C         51.42539        26.69549        -0.38616
C         52.68412        28.85358        -0.47608
C         51.40868        29.57025        -0.66826
C         52.66770        31.75466        -0.79608
C         51.39338        30.95450        -0.98319
C         52.67446        33.00244        -1.67362
C         51.41135        33.80676        -1.49636
C         52.68585        35.92492        -1.44175
C         51.44721        35.18866        -1.49833
C         52.68246        37.32386        -1.28097
C         51.43943        38.00111        -0.99845
C         52.70958        40.18781        -0.86468
C         51.51200        39.39527        -0.53278
C         52.64458        41.58118        -0.85718
C         51.42435        42.29462        -0.57336
C         52.62723        44.47275        -0.57623
C         51.42348        43.73169        -0.46386
C         52.66332        45.87101        -0.35493
C         51.42641        46.56496        -0.15785
C         52.65050        48.70041        -0.09939
C         51.42390        47.98516        -0.03967
C         52.63936        50.14647        -0.06972
C         51.42403        50.86491         0.05459
C         52.62207        52.94552        -0.31317
C         51.40138        52.26878        -0.05844
C         53.59005        22.04203         3.22316
C         55.05984        23.72893         1.98973
C         53.82725        22.84234         1.96102
C         55.08942        24.97236         1.26978
C         53.90029        25.47869         0.71238
C         55.22590        27.43283        -0.26346
C         53.92748        26.71755        -0.09039
C         55.16563        28.87531        -0.57199
C         53.96105        29.56078        -0.64413
C         55.16363        31.65886        -1.14729
C         53.95281        30.96725        -0.95133
C         55.16124        33.09750        -1.35634
C         53.94140        33.79918        -1.47535
C         55.15194        35.93771        -1.46752
C         53.92588        35.20666        -1.47855
C         55.15323        37.36392        -1.41711
C         53.91477        38.06774        -1.27820
C         55.16199        40.20974        -1.25004
C         53.92372        39.48360        -1.15564
C         55.16013        41.62828        -1.21882
C         53.86475        42.32767        -1.21731
C         55.16664        44.50845        -0.81262
C         53.87226        43.83462        -1.03358
C         55.17815        45.88353        -0.44744
C         53.90964        46.58096        -0.33846
C         55.12115        48.70883        -0.06109
C         53.88363        47.99480        -0.21436
C         55.10788        50.13312         0.02256
C         53.86371        50.85797        -0.16149
C         53.82483        52.26258        -0.31594
C         57.41530        24.01171         2.54792
C         56.22390        23.26962         2.59002
C         57.50206        25.22154         1.84649
C         56.34127        25.70727         1.15823
C         57.63823        27.65134         0.31839
C         56.42823        26.91415         0.41958
C         57.68548        28.92560        -0.33457
C         56.45881        29.48944        -1.01598
C         57.63663        31.68913        -1.08403
C         56.42044        30.99040        -1.03919
C         57.63858        33.10211        -1.31873
C         56.38913        33.80047        -1.43842
C         57.59146        35.95047        -1.66340
C         56.37394        35.22504        -1.55124
C         57.60441        37.33511        -1.51503
C         56.38957        38.06875        -1.42708
C         57.59768        40.24792        -1.56646
C         56.39633        39.51102        -1.39434
C         57.59572        41.65738        -1.45220
C         56.36512        42.36512        -1.26212
C         57.61124        44.51640        -0.95160
C         56.37155        43.80267        -1.02638
C         57.65589        45.86579        -0.47817
C         56.41953        46.55803        -0.20521
C         57.37057        48.71310         0.75881
C         56.33248        47.97707         0.14597
C         57.36883        50.10713         0.87112
C         56.26659        50.82484         0.42495
C         59.90580        25.54561         2.46522
C         58.74995        25.96872         1.76991
C         60.07443        27.80885         0.80169
C         58.82911        27.13871         0.96397
C         60.18021        28.88450        -0.26916
C         58.88436        29.64058        -0.45225
C         60.11325        31.74649        -0.93520
C         58.89527        31.01067        -0.86774
C         60.10820        33.12082        -1.32596
C         58.86388        33.77776        -1.49056
C         60.09770        35.91028        -2.26165
C         58.82390        35.17964        -1.94347
C         59.94141        37.40022        -2.32276
C         58.93829        38.03909        -1.38117
C         60.15891        40.27159        -1.78551
C         58.85919        39.50511        -1.80188
C         60.06697        41.75034        -1.73654
C         58.83217        42.41143        -1.53923
C         60.03221        44.54866        -1.51816
C         58.82322        43.82511        -1.33910
C         60.07494        45.95163        -1.15838
C         58.97877        46.50342        -0.43418
C         60.49745        48.35085         0.22548
C         59.30587        47.63916         0.34544
C         61.10133        26.23658         2.34150
C         61.19468        27.34770         1.49006
C         61.37482        29.78679        -0.15379
C         61.33939        31.08018        -0.53394
C         61.32268        33.90652        -1.48307
C         61.33761        35.20737        -1.88206
C         60.27785        38.25548        -3.31109
C         59.70863        39.60902        -3.08240
C         61.25284        42.48247        -1.88465
C         61.22616        43.86689        -1.83310
C         61.25947        46.70382        -1.34331
C         61.45589        47.91554        -0.69722
O         28.84666        30.25461         0.35734
O         37.97471        40.92749        -2.35901
O         29.20941        39.02713        -2.29300
O         38.90323        46.88118         1.87988
O         54.70514        26.57039        -1.35620
O         28.63954        22.48973        -3.00314
O         33.89990        43.39029        -1.86942
O         33.92104        48.05221         2.52601
O         29.84688        33.15640        -2.68777
O         47.39545        41.67048         1.72928
O         59.32592        35.29092        -3.34480
O         40.39949        23.17077        -2.21639
O         24.31718        29.16760        -2.05670
O         49.04895        21.28092         0.58339
O         32.60691        32.39636         0.72106
O         38.17201        24.39252        -2.44779
O         35.01910        49.60837        -0.51277
O         24.75645        42.20025        -1.77329
O         27.15122        31.23773        -2.69846
O         34.08190        26.02963         0.69283
O         32.48018        45.78345         2.11876
O         27.17755        48.46580         2.46958
O         43.72961        38.25270         1.34907
O         31.24974        24.80867        -2.67689
O         31.59726        38.53334         0.75644
O         37.44654        48.63686        -0.79083
O         58.43302        48.03902         1.36700
O         40.93506        26.75516        -2.64917
O         53.71522        43.23045        -2.37233
O         49.49470        35.79995        -2.87739
O         41.88429        51.32111         3.06474
O         37.83671        36.87424         0.99603
O         36.30745        34.49733         1.17965
O         51.03011        39.59228         0.84593
O         27.34734        45.87659         2.25827
O         39.67073        55.06807         3.12397
O         46.04985        24.49804        -1.46407
O         45.47346        33.66759        -2.71249
O         24.17095        25.51286         0.18812
O         43.40396        45.91333         2.35180
O         51.25096        26.43808        -1.81907
H         52.13817        26.24793        -2.19560
O         60.37466        28.14830        -1.53058
H         59.50682        27.76889        -1.78904
O         35.00982        27.22528        -2.67166
H         35.82271        27.54512        -3.11746
O         44.09129        34.86583         1.20639
H         43.92674        35.74638         1.60960
O         44.80734        49.90650        -1.09609
H         44.96754        50.79279        -1.50983
O         54.09837        21.85730         0.89630
H         53.27229        21.34760         0.75113
O         52.64318        32.22199         0.58830
H         52.66050        31.43524         1.17272
O         31.55959        50.63861         3.34353
H         32.38700        50.98033         3.74426
O         47.77187        32.83896        -3.35592
H         46.85567        32.98627        -3.69886
O         61.27471        39.75384        -1.10435
H         61.00493        38.92858        -0.64260
O         22.12569        26.82884         0.70308
H         22.59173        25.97152         0.87220
O         50.34060        50.17402         2.04498
H         51.19443        49.74272         2.26623
O         36.79720        20.32699        -1.70631
H         36.85453        19.34844        -1.67399
O         24.94907        45.09741         2.14013
H         25.74799        45.10494         2.72082
O         47.98374        48.74517         2.31159
H         48.80160        49.28313         2.47552
O         42.11681        21.42495        -1.49017
H         41.82703        21.93476        -2.28464
O         52.68088        32.52414        -3.05008
H         52.50606        33.28614        -3.64135
O         37.82886        23.58490         1.14396
H         37.66391        22.82281         1.74004
O         42.62699        48.46354         3.03383
H         42.76863        47.52369         3.29139
O         44.22186        29.30161        -3.10778
H         44.26006        28.35231        -3.35353
O         39.64792        52.60187        -0.14807
H         38.98459        52.23469        -0.77093
O         35.39259        40.08387        -2.74474
H         36.20780        40.56827        -3.03506
O         26.43860        38.26389        -2.59249
H         27.30043        38.58447        -2.95302
O         33.17528        35.86512        -2.76834
H         33.95100        36.43880        -2.95037
O         56.61579        29.07943        -2.43551
H         55.80080        29.35095        -2.91013
O         38.08740        32.66086         1.52382
H         37.65700        33.41246         1.99838
O         50.38921        27.68479         1.51734
H         49.62044        28.19088         1.85468
O         45.58114        39.79344         2.05615
H         45.04751        39.01360         2.34207
O         39.82389        52.62574         3.47452
H         40.48003        52.01719         3.89396
O         25.57420        45.22620        -1.46376
H         25.46560        44.51056        -2.12845
O         39.45773        44.15385        -2.15476
H         38.83355        43.61766        -2.69027
O         28.99122        35.54011        -3.14942
H         29.51374        34.84449        -3.61181
O         46.17994        23.64199         2.58368
H         45.39894        23.27894         3.05587
O         41.98004        48.12833        -0.54202
H         41.24640        47.76943        -1.08463
O         50.32248        23.93618        -1.17198
H         50.46659        24.69074        -1.79583
O         41.66816        38.06704        -2.42869
H         40.83362        38.49148        -2.72425
O         36.90900        37.80301        -2.47795
H         36.32264        38.46789        -2.92555
O         35.10953        54.52845        -0.46371
H         34.29168        54.03101        -0.67890
O         46.07873        52.26628        -1.52246
H         46.90448        51.99050        -1.97635
O         59.39923        37.90757        -0.01054
H         58.71034        38.27897         0.57957
H         22.54149        23.72377        -2.13188
H         20.78318        25.34794        -2.58756
H         20.88515        27.68469        -1.81512
H         21.31753        28.91481         1.34926
H         21.45420        31.35974         1.68344
H         21.28922        33.31536         1.45670
H         21.21302        35.75099         1.25852
H         20.95211        37.52817         0.49918
H         20.85033        39.92926         0.19498
H         20.85421        41.79271         0.50063
H         20.84892        44.22258         0.67446
H         20.83086        46.13587        -0.19926
H         23.01022        49.83202         0.11509
H         20.89698        48.62443        -0.26914
H         24.19203        22.88882        -2.70469
H         24.72008        50.69430         0.15408
H         26.29725        21.76601        -3.42199
H         26.80742        51.88711         0.45496
H         30.54800        18.93366        -0.95724
H         28.75324        19.98296        -2.34059
H         30.44221        54.04811         1.51451
H         28.36374        52.83635         1.16038
H         31.88131        18.29885         0.43777
H         32.10079        54.92008         2.23084
H         33.93456        17.26519         1.25648
H         34.16528        56.16923         1.84331
H         37.57086        15.56068         2.85765
H         35.57576        16.46207         1.80865
H         37.87754        58.28402         0.76189
H         35.75859        57.03805         0.73040
H         39.03015        14.98389         3.90572
H         39.44797        59.26854         1.50757
H         43.17198        15.34392         4.94195
H         41.03284        14.13131         5.06148
H         43.71422        59.22872         1.07871
H         41.60990        60.47427         1.38177
H         44.78755        16.29459         4.85371
H         45.21066        58.28283         0.48913
H         46.90126        17.47055         4.67271
H         47.24834        57.05937        -0.00669
H         50.66248        19.63583         4.37967
H         48.56615        18.46208         4.58290
H         51.02534        54.98093         0.06735
H         48.90950        56.17082         0.23582
H         52.28115        20.83331         4.36713
H         52.63114        54.03281        -0.46583
H         54.44109        21.80997         3.87993
H         54.75670        52.82634        -0.45873
H         58.29652        23.59887         3.05579
H         56.23350        22.29963         3.10559
H         58.22871        50.61391         1.32705
H         56.26429        51.91965         0.50321
H         59.87213        24.66070         3.11398
H         60.67192        49.23049         0.85769
H         61.99023        25.89619         2.89035
H         62.16738        27.84373         1.37484
H         62.33800        29.34565         0.13920
H         62.26756        31.66721        -0.49066
H         62.28484        33.43334        -1.24129
H         62.28788        35.76122        -1.90294
H         60.90796        38.01553        -4.17663
H         59.39794        40.23723        -3.93137
H         62.19861        41.94737        -2.04041
H         62.16520        44.41919        -1.96260
H         62.05634        46.31620        -1.99042
H         62.38441        48.48260        -0.84659
