         349
 CSIRO Nanostructure Databank - Neutral Graphene Oxide Data Set
C          1.10069         2.09519         0.51387
C          1.09491         3.53020         0.55256
C          2.23968         1.36893         0.33236
C          2.25433         4.26470         0.44342
C          1.16564         6.51357         0.77018
C          1.16827         7.90802         0.70581
C          2.31524         5.72483         0.51453
C          2.30699         8.62409         0.28757
C          1.22809        10.87127         0.14377
C          1.31094        12.24874         0.10586
C          2.38991        10.05811         0.18576
C          2.55734        12.93490         0.19210
C          1.47640        15.17960         0.06831
C          1.53412        16.57568         0.06206
C          2.63072        14.38812         0.18063
C          2.75656        17.24497         0.19964
C          2.82166        18.68055         0.22780
C          3.51410         2.03312         0.04418
C          3.50899         3.55886         0.09663
C          4.78984         1.34297         0.23047
C          4.79907         4.24183         0.48723
C          3.53398         6.38507         0.18713
C          3.48290         7.83000        -0.05411
C          4.77758         5.69897         0.08374
C          4.85921         8.58871         0.00242
C          3.66519        10.73288         0.23501
C          3.73609        12.16723         0.31334
C          4.85574         9.98854         0.34813
C          5.02300        12.81579         0.49318
C          3.91652        15.03088         0.26938
C          3.97092        16.48386         0.31296
C          5.08525        14.25352         0.39382
C          5.17410        17.16752         0.53883
C          4.00289        19.33691         0.41816
C          5.23146        18.60757         0.62395
C          6.02071         2.02149         0.15002
C          6.03633         3.49316         0.05630
C          7.24060         1.33943         0.23285
C          7.19888         4.16542        -0.20443
C          6.00512         6.36194        -0.08840
C          6.07993         7.78507         0.08252
C          7.25114         5.61730        -0.21392
C          7.30505         8.42266         0.21626
C          6.08013        10.60602         0.85692
C          6.16684        12.07017         0.80971
C          7.39092         9.74961         0.80619
C          7.47191        12.71031         1.09200
C          6.40187        14.90149         0.41138
C          6.43662        16.42356         0.52010
C          7.60591        14.17253         0.86857
C          7.63250        17.02533         1.15197
C          6.43956        19.27421         0.80835
C          7.64930        18.56840         1.23770
C          8.52508         2.11599         0.31095
C          8.43651         3.37061        -0.56142
C          9.77251         1.33553        -0.00161
C          9.72457         4.16060        -0.51143
C          8.45817         6.28504        -0.38097
C          8.46394         7.78992        -0.49704
C          9.70924         5.58134        -0.55928
C          9.78946         8.45137        -0.24801
C          8.77520        10.36157         1.01606
C          8.75361        11.88461         1.11605
C          9.86265         9.80284         0.12100
C         10.01538        12.60342         0.81159
C          8.80196        14.81966         1.08203
C          8.90343        16.27511         1.14489
C         10.07229        14.02673         1.34903
C         10.08875        16.95839         1.36408
C          8.97096        19.17185         1.18200
C         10.13331        18.40921         1.30184
C         10.94579         2.00132        -0.32959
C         10.93218         3.45502        -0.52599
C         12.19827         1.32774        -0.36986
C         12.15940         4.15387        -0.72039
C         10.92278         6.29529        -0.73029
C         10.95212         7.74650        -0.62612
C         12.14816         5.57084        -0.86843
C         12.16064         8.46126        -0.78093
C         11.07376        10.52376        -0.02518
C         11.10669        11.94976         0.30214
C         12.22914         9.85098        -0.52049
C         12.30812        12.76540        -0.13693
C         11.27797        14.86329         0.84145
C         11.36088        16.18192         1.67031
C         12.55738        13.97918         0.82211
C         12.67883        16.92444         1.36701
C         11.39925        19.05823         1.13801
C         12.62569        18.38221         1.05373
C         13.42533         2.02013        -0.49023
C         13.41012         3.46282        -0.72968
C         14.64190         1.33317        -0.39252
C         14.59335         4.16108        -1.00705
C         13.37006         6.25569        -1.13113
C         13.33479         7.71552        -1.26746
C         14.59520         5.57152        -1.25883
C         14.66838         8.43231        -1.28237
C         13.50749        10.55365        -0.65875
C         13.56373        11.97620        -0.39312
C         14.67057         9.86384        -0.96355
C         14.70430        12.71269        -0.61582
C         13.80197        14.77343         0.41909
C         13.91530        16.17894         0.92383
C         14.76527        14.14991        -0.33484
C         15.10791        17.00423         0.57264
C         13.74981        19.04711         0.53310
C         14.99676        18.39298         0.29233
C         15.91484         2.02341        -0.36126
C         15.89798         3.51458        -0.75334
C         17.19069         1.31226        -0.35653
C         17.12999         4.05558        -1.40911
C         15.86612         6.29047        -1.31697
C         15.90508         7.65544        -1.17203
C         17.15389         5.59554        -1.75718
C         17.14979         8.37149        -0.68712
C         15.93770        10.55032        -1.25579
C         15.91197        12.05275        -1.15787
C         17.22902         9.81820        -1.14465
C         17.23836        12.68824        -0.92403
C         15.94012        14.81414        -1.02375
C         16.40166        16.45518         0.69274
C         17.28702        14.16874        -0.76143
C         17.49005        17.05419         0.01866
C         16.16270        19.10341        -0.09708
C         17.37895        18.43226        -0.30850
C         18.40168         1.98990        -0.51470
C         18.40614         3.29453        -1.24077
C         19.60829         1.45262        -0.04036
C         19.70925         4.04288        -1.39750
C         18.43023         6.29247        -1.23618
C         18.43708         7.61416        -0.93033
C         19.71420         5.54976        -1.37932
C         19.71164         8.37204        -0.59404
C         18.43047        10.47504        -1.25270
C         18.42855        11.95309        -1.45436
C         19.72020         9.81593        -1.08540
C         19.69357        12.72150        -1.62664
C         18.58362        14.87280        -0.89459
C         18.75140        16.26250        -0.26886
C         19.73075        14.17279        -1.24883
C         19.72524        17.05540        -1.11471
C         18.57185        19.16810        -0.72016
C         19.73157        18.53117        -1.01967
C         20.84935         2.14822        -0.12967
C         20.99273         3.25125        -1.16959
C         21.90548         1.77153         0.66137
C         22.20911         4.12280        -0.93009
C         20.98593         6.26458        -1.09804
C         20.98338         7.63393        -0.94535
C         22.22442         5.49797        -1.01979
C         22.21956         8.38608        -0.96419
C         20.91453        10.50201        -1.19730
C         20.99822        11.93108        -1.75434
C         22.19302         9.80580        -1.05339
C         22.21323        12.69878        -1.26646
C         21.00313        14.84023        -1.29696
C         20.99148        16.30086        -1.46776
C         22.23453        14.13423        -1.29159
C         22.24690        17.04724        -1.36808
C         20.95259        19.23780        -1.56513
C         22.22789        18.46287        -1.28734
C         23.15886         2.58364         0.75124
C         23.44573         3.34558        -0.56468
C         24.36042         1.79588         1.17579
C         24.68930         4.18529        -0.38390
C         23.49329         6.23012        -0.98464
C         23.46241         7.68508        -1.03628
C         24.70365         5.54931        -0.86121
C         24.65926         8.41756        -1.07398
C         23.41835        10.53504        -1.11537
C         23.41318        11.98826        -1.16151
C         24.65848         9.83010        -1.08677
C         24.65750        12.69757        -1.26161
C         23.47457        14.85823        -1.21279
C         23.44941        16.31357        -1.14829
C         24.72881        14.15436        -1.16257
C         24.61348        17.03144        -0.83023
C         23.37897        19.14535        -0.91091
C         24.57124        18.43832        -0.60728
C         25.63229         2.37230         1.04087
C         25.75741         3.62928         0.28457
C         26.72227         1.84859         1.75630
C         27.10378         4.22760         0.17454
C         26.00816         6.25599        -0.99652
C         25.98268         7.74825        -1.34856
C         27.23989         5.59998        -0.41788
C         27.10463         8.54258        -0.68657
C         25.91900        10.54157        -1.25612
C         25.78001        11.91031        -1.57024
C         27.18738         9.93179        -0.92400
C         27.65895        13.00711        -1.20857
C         25.93168        14.85192        -0.85050
C         25.95304        16.36584        -0.75136
C         27.25397        14.29142        -0.65267
C         26.72511        16.90049         0.45140
C         25.66549        19.10494         0.01082
C         26.71110        18.37808         0.63345
C         27.90264         2.70961         2.09455
C         28.23130         3.67807         0.97370
C         29.12988         1.97715         2.59074
C         29.48432         4.49667         1.12679
C         28.28256         6.48383         0.19297
C         27.99544         7.85021         0.17485
C         29.42651         5.95829         0.89843
C         29.79555         8.91979         0.42188
C         28.59868        10.68824        -1.08584
C         28.62062        12.18313        -0.70803
C         29.82694         9.99772        -0.47145
C         29.77220        12.85465         0.03051
C         28.22926        14.91734         0.11599
C         27.94278        16.12691         0.89271
C         29.62848        14.41432        -0.06579
C         29.05411        16.81906         1.62338
C         27.70416        19.01604         1.36138
C         28.86507        18.33087         1.93924
C         30.33307         2.57110         2.61338
C         30.57485         3.90502         1.99452
C         31.54329         4.84837         2.55893
C         30.58873         6.69620         1.22095
C         30.85676         8.01814         0.64585
C         31.60111         6.12065         2.07259
C         32.11955         8.37024         0.12961
C         31.12875        10.34998        -0.87501
C         31.15283        12.62170        -0.59763
C         32.25685         9.56721        -0.56975
C         32.18954        13.43305        -0.25479
C         30.71100        15.09989         0.75890
C         30.43960        16.33089         1.49343
C         31.97158        14.58886         0.58459
C         31.46010        17.10956         2.01555
C         30.07241        19.10909         2.22188
C         31.27275        18.47825         2.37914
O         19.79912         4.78033        -2.64308
O          8.10541        12.29566         2.37336
O         13.65694        16.44906         2.36460
O          3.50785         2.89802        -1.18288
O         15.78314        15.63090        -1.91462
O         28.61591         8.66838         1.13689
O          6.69076        15.75939        -0.75625
O         19.96722        16.66370        -2.48789
O         17.15534         5.71545        -3.12892
O          4.15687         8.28834        -1.25538
O         17.61944         3.21628        -2.47915
O         30.64465         3.84030         0.52327
O         13.90157         8.19886        -2.52710
O         28.04122         3.21018        -0.37922
O         31.37647        11.58568        -1.49977
O         26.66579        16.07806         1.63586
O          7.37875        17.69045         2.40964
O         15.79765        11.41783        -2.45480
O         26.84138        12.52070        -2.23754
O         27.01457         5.59481        -1.86008
O         17.31578        13.23970         0.41399
O          6.60991         9.90714         2.04025
O         28.63678        17.26769         2.93300
O         18.81383        12.44849        -2.78016
O         16.01938         3.16937         0.63789
O          8.65147         2.58459         1.70091
H          8.76537         1.79689         2.27307
O         21.26033        11.75888        -3.17528
H         20.38111        11.75025        -3.62424
O          8.22548         8.07236        -1.93388
H          7.37427         7.64925        -2.18081
O          4.79994         4.23063         1.95460
H          5.65520         4.60381         2.25689
O         10.99985        15.38549        -0.46760
H         11.06480        14.66924        -1.14306
O         12.80639        13.47045         2.14250
H         11.95137        13.45787         2.64750
O         16.96997         8.46315         0.76955
H         17.87139         8.56370         1.16387
O         21.03401        20.57275        -1.07184
H         21.00917        20.54483        -0.09373
O         26.16315         7.84941        -2.78410
H         26.76289         7.11252        -3.04607
O          9.19994         9.89877         2.33035
H          8.48815        10.17392         2.95370
O         28.81169        10.59164        -2.50887
H         28.14200        11.16452        -2.94829
O         16.61806        15.36789         1.48199
H         15.78357        15.09025         1.91514
O         29.84942        12.40583         1.39234
H         28.98634        12.56313         1.82778
O         23.76116         2.37678        -1.58570
H         22.94052         2.20231        -2.11249
O         11.32270        15.97706         3.08523
H         12.24492        15.80024         3.38302
O         19.72827         8.47304         0.88601
H         20.54479         8.95471         1.14041
O         27.46884         3.57627         3.20981
H         27.25008         2.99779         3.97074
O         29.93486        14.69289        -1.47275
H         29.79136        15.64905        -1.63325
O         22.94226         3.62135         1.77696
H         22.76733         3.16716         2.62795
O         21.22028         2.54514        -2.43410
H         20.94372         3.16358        -3.15061
O         10.22488        13.82972         2.77979
H          9.44183        13.30023         3.07595
O         26.73461        16.83648        -1.91066
H         26.24531        16.58294        -2.72210
O         11.97229        13.24997        -1.48183
H         12.04063        12.49284        -2.10210
O         19.42845        16.03793         1.00747
H         18.79164        15.55917         1.58455
O          8.28722         2.90596        -1.93042
H          8.24366         3.68902        -2.51751
H          0.15155         1.57400         0.70423
H          0.13616         4.02996         0.75000
H          2.22730         0.27419         0.43944
H          0.22944         6.01319         1.05363
H          0.24827         8.45033         0.96698
H          0.23898        10.39444         0.09611
H          0.37734        12.82075         0.02627
H          0.49015        14.70544        -0.01950
H          0.60618        17.15739        -0.03355
H          1.88758        19.24717         0.10067
H          4.78207         0.25842         0.41799
H          4.03285        20.43556         0.44776
H          7.24794         0.24499         0.35554
H          6.47762        20.36843         0.69954
H          9.80014         0.25438         0.20918
H          9.05116        20.24213         0.93874
H         12.22013         0.24173        -0.19206
H         11.39145        20.13951         0.92809
H         14.64393         0.23298        -0.39106
H         13.66352        20.11956         0.30123
H         17.19821         0.25832        -0.03962
H         16.10491        20.18889        -0.25961
H         19.56873         0.54237         0.57730
H         18.51800        20.26611        -0.77131
H         21.77258         0.93369         1.36585
H         20.83297        19.31240        -2.68161
H         24.23190         0.89167         1.79258
H         23.34258        20.23744        -0.78556
H         26.57074         0.92498         2.33902
H         25.62440        20.19697         0.13703
H         28.99844         0.97394         3.02642
H         27.69529        20.11666         1.40659
H         31.20050         2.04914         3.04784
H         32.24340         4.50845         3.33581
H         32.39661         6.79283         2.42710
H         32.98260         7.70613         0.27334
H         33.24085         9.88998        -0.93312
H         33.20163        13.22161        -0.62424
H         32.84963        15.06368         1.04407
H         32.49179        16.73227         2.00498
H         29.99309        20.20250         2.30705
H         32.16209        19.06173         2.65728
