         276
 CSIRO Nanostructure Databank - Neutral Graphene Oxide Data Set
C        -10.00535         0.39246         2.66607
C         -9.24899         1.34429         1.85996
C         -8.51009         0.77724         0.69258
C         -7.37944         1.52537        -0.00015
C         -6.26062         0.78004        -0.64017
C         -5.16392         1.45110        -1.13806
C         -3.91366         0.73306        -1.30516
C         -2.69170         1.52752        -1.14587
C         -1.63786         0.82077        -0.30557
C         -0.31983         1.61911        -0.11998
C          0.92833         0.90422         0.28581
C          2.24057         1.74191         0.28123
C          3.45406         0.88714         0.63808
C          4.79364         1.51355         0.53474
C          5.88544         0.89961         1.41719
C          7.24948         1.51087         1.09798
C          8.42551         0.86476         1.67933
C          9.67769         1.55136         1.53491
C         10.88589         0.75552         1.35576
C         -9.26364         2.65842         2.29198
C         -8.70820         3.83265         1.67153
C         -7.10222         2.91419         0.44182
C         -5.93423         3.52768         0.82216
C         -5.20099         2.88161        -1.57939
C         -3.88410         3.64825        -1.78919
C         -2.67278         2.88558        -1.30175
C         -1.42437         3.68730        -1.15798
C         -0.17440         3.02550        -0.68832
C          1.11823         3.37910        -1.45663
C          2.40215         2.76008        -0.85384
C          3.71832         3.53327        -0.73036
C          4.90721         2.87957        -0.03798
C          5.99923         3.73504         0.58050
C          7.31232         2.97763         0.79401
C          8.47143         3.78658         1.37146
C          9.71751         2.93500         1.40079
C         -8.45024         5.01328         2.35621
C         -7.68507         6.00059         1.61485
C         -5.79121         5.00815         0.63940
C         -4.87899         5.67740        -0.37992
C         -3.79038         5.06982        -1.19629
C         -2.63207         5.76972        -1.43355
C         -1.41548         4.98875        -1.96627
C         -0.02497         5.71834        -1.86337
C          1.25441         4.90678        -1.78672
C          2.67540         5.57414        -1.82888
C          3.70338         4.97614        -0.88298
C          4.98423         5.68543        -0.72864
C          6.22136         5.02236        -0.18800
C          7.40594         5.84527         0.21401
C          8.69001         5.10057         0.57836
C         -6.20248         6.06780         1.76926
C         -5.49723         7.35702         1.32942
C         -4.71947         7.09062         0.09577
C         -3.51683         7.88045        -0.26186
C         -2.49389         7.22145        -1.13995
C         -1.16441         7.93594        -1.30073
C          0.07614         7.17462        -1.55217
C          1.29024         7.83394        -1.54607
C          2.62358         7.17603        -1.89236
C          3.77616         7.87169        -1.17307
C          4.93468         7.16915        -0.50042
C          6.28830         7.86141        -0.78181
C          7.41619         7.17074        -0.03549
C         -5.09344         8.51933         2.16910
C         -4.03622         9.27428         1.80928
C         -2.98892         8.82166         0.80904
C         -2.06402         9.85396         0.24896
C         -1.03687         9.34604        -0.67192
C          0.31527         9.91116        -0.64160
C          1.35075         9.25592        -1.23805
C          2.61999        10.00083        -1.59529
C          3.80243         9.22947        -1.09998
C          4.96752         9.94427        -0.57815
C          6.15718         9.32900        -0.43712
C        -10.27440        -0.87407         2.28167
C         -9.73939        -1.44365         0.99172
C         -8.43783        -0.72794         0.65387
C         -7.37964        -1.43792        -0.11359
C         -6.38668        -0.68007        -0.96761
C         -5.08653        -1.43848        -1.13445
C         -3.88251        -0.66220        -1.30313
C         -2.55582        -1.32256        -1.40622
C         -1.36577        -0.58037        -0.86083
C         -0.16726        -1.32824        -0.40444
C          0.95260        -0.64429         0.38019
C          2.31002        -1.19314        -0.09381
C          3.43929        -0.59298         0.72763
C          4.71385        -1.32253         1.05425
C          5.86496        -0.64131         1.29700
C          6.97821        -1.23785         2.15781
C          8.35145        -0.55937         2.00041
C          9.62887        -1.34831         1.68439
C         10.82990        -0.59354         1.26878
C         -9.56502        -2.93237         1.05192
C         -8.58195        -3.60992         0.36296
C         -7.60300        -2.88045        -0.54219
C         -6.27386        -3.60703        -0.73701
C         -5.09803        -2.83523        -1.15380
C         -3.83715        -3.55954        -1.51486
C         -2.46142        -2.84007        -1.60898
C         -1.45777        -3.45191        -0.59916
C         -0.13803        -2.69808        -0.49262
C          1.09120        -3.44443        -0.30584
C          2.44496        -2.73937        -0.21929
C          3.32306        -3.44145         0.87501
C          4.43210        -2.69930         1.66122
C          5.71828        -3.53311         1.94006
C          7.02775        -2.78905         2.07746
C          8.25548        -3.51899         1.61726
C          9.52002        -2.78457         1.20406
C         -8.56213        -5.02585         0.35483
C         -7.43115        -5.74872        -0.10616
C         -6.26711        -4.98225        -0.57302
C         -5.09154        -5.77874        -0.97260
C         -3.82173        -5.04642        -1.29653
C         -2.57246        -5.68256        -0.76019
C         -1.29164        -4.94338        -0.80491
C         -0.10085        -5.58473        -0.60772
C          1.11540        -4.81512        -0.43274
C          2.41266        -5.53250        -0.32476
C          3.39545        -4.91376         0.63632
C          4.61574        -5.70967         1.02002
C          5.75807        -5.02291         1.68174
C          7.10370        -5.74110         1.87336
C          8.25373        -4.86025         1.45378
C         -7.42311        -7.14089         0.00182
C         -6.15286        -7.93772         0.09444
C         -5.04034        -7.24939        -0.68227
C         -3.75371        -7.94434        -0.65347
C         -2.55201        -7.16198        -0.47191
C         -1.25026        -7.89316        -0.39584
C         -0.00738        -7.07175        -0.46890
C          1.24330        -7.76857        -0.99155
C          2.49113        -6.99944        -0.56983
C          3.58087        -7.81575         0.15935
C          4.89499        -6.95078         0.19260
C          6.09563        -7.74784         0.64046
C          7.13948        -7.12837         1.25023
C         -6.16850        -9.38763        -0.37126
C         -5.01493       -10.05784        -0.54427
C         -3.68666        -9.39224        -0.24785
C         -2.41667       -10.02242        -0.79349
C         -1.25008        -9.33507        -0.80279
C          0.07620        -9.98540        -1.22845
C          1.28581        -9.27202        -0.57856
C          2.65869        -9.83886        -0.92344
C          3.77220        -9.16499        -0.51852
C          5.11396        -9.72607        -0.49633
C          6.16665        -9.10302         0.10716
O         -8.25734         3.75979         0.34810
O         -1.61698        -0.62395        -2.30656
O         -6.22163         3.33522        -2.07760
O         -7.24155        -1.25343         1.32433
O         -0.83840         3.99510         0.16760
O          6.01295         5.07106        -1.63019
O          3.11151        -3.01405        -1.42259
O         -8.70434         1.39963        -0.60218
O          6.33421        -3.31890         3.24502
O         -0.49878        -7.55815         0.81666
O          7.63210         2.04939        -0.25438
O         -1.36238         9.12113        -2.11321
O          2.93272        -6.06989        -1.59269
O          3.17965        -8.00220         1.47675
O         -3.53516         8.12801        -1.67834
O         -6.28932         5.43574        -0.64637
O          4.75983        -5.78445         2.45839
O          0.69198         5.29496        -3.08130
O         -5.44772        -6.77068        -2.01762
O         -2.79782        -6.15688         0.61808
O          0.05719         1.50010         1.28490
O         -7.04591        -0.65018        -2.34515
O          5.29883         1.70100        -0.80576
O          5.65387         1.15129         2.76160
O          3.36065         2.63235        -1.89417
O          2.90239         7.54699        -3.32520
O          2.62377        -4.35156         1.75987
O         -2.28268         0.66591         0.93294
O         -3.91190        -4.50590        -2.63617
O         -6.00951         7.82008         0.02223
O          9.25706        -1.04905         3.04819
O          3.10989         0.22964         1.89535
O         -8.25772        -2.82406        -1.84090
H         -8.24315        -3.72492        -2.22785
O          0.92579         2.68278        -2.69972
H          1.80072         2.62650        -3.14763
O          0.08644       -11.35721        -0.84783
H          0.30575       -11.37174         0.11015
O          2.46079        -0.65331        -1.42144
H          2.84169        -1.41725        -1.95205
O          4.69124         7.26405         0.93671
H          4.61298         8.21645         1.16160
O          9.36186         4.78721        -0.64605
H          8.76426         4.24561        -1.20420
O         -4.76257         2.90948         1.15545
H         -4.81895         1.93067         1.17651
O         -1.60725         4.67423        -3.33928
H         -1.70979         5.50142        -3.85060
O          5.48385         4.12865         1.86979
H          6.23586         4.44625         2.42590
O          2.63175        11.32740        -1.08209
H          2.04280        11.87781        -1.63582
O          2.16114         2.66293         1.40154
H          2.05789         2.12368         2.21818
O         -3.54717        -9.39046         1.22347
H         -2.68053        -8.98208         1.44678
O         -2.10348        -3.30096         0.69495
H         -1.54233        -3.72563         1.37872
O        -10.70085        -1.13664        -0.05608
H        -10.34646        -1.48926        -0.90132
O         -2.15196         7.89163         1.63376
H         -1.63864         8.43720         2.26843
O          7.26567        -5.96030         3.29777
H          6.37101        -6.17224         3.64884
O         -6.13086        -0.03118        -3.25855
H         -5.66126        -0.79618        -3.67332
O          3.87388        -2.37898         2.94889
H          3.33284        -3.15400         3.22707
O          5.25066        -6.49064        -1.11854
H          5.42373        -7.26925        -1.68808
O          1.16624        -7.74793        -2.43191
H          1.70107        -6.97266        -2.73277
O          8.10069         4.17586         2.72605
H          8.06451         3.36741         3.28257
O         10.67593        -3.50521         1.64543
H         10.61385        -3.60537         2.61849
O          1.65362         7.73826        -4.02804
H          1.24322         6.83060        -4.01992
O          6.60618         7.76816        -2.18604
H          6.60771         6.81118        -2.42353
O          1.11570        -9.47239         0.83160
H          1.84963        -8.98348         1.31593
O         -1.95208        -3.07902        -2.92423
H         -1.44979        -2.27469        -3.19540
O          0.72898        -1.00556         1.74767
H          0.08005        -0.35677         2.10946
O         -8.21294         6.53411         0.57630
H         -7.51732         7.01456         0.02386
O         -5.81533        -7.90442         1.50621
H         -5.00137        -8.46054         1.63735
O          6.59427        -0.86607         3.49130
H          5.68516        -1.21089         3.65653
O          3.22298         5.13640        -3.09474
H          2.51413         5.19930        -3.77278
O         -3.87821         3.77594        -3.23108
H         -4.80285         3.97227        -3.50276
H         11.71158        -1.17517         0.96261
H         11.81791         1.28987         1.12050
H         10.69036         3.43101         1.26429
H          9.36511         5.77163         1.16410
H          8.32926         7.75498         0.16392
H          7.05368         9.89041        -0.13389
H          4.85426        11.02047        -0.38410
H          2.66548        10.04026        -2.72273
H          0.45943        10.93939        -0.27479
H         -1.68494        10.58289         0.98882
H         -3.81135        10.18231         2.39075
H         -5.75683         8.83165         2.99015
H         -5.86950         5.72142         2.76819
H         -8.45098         5.02135         3.45473
H         -9.79585         2.85062         3.23778
H        -10.43805         0.77522         3.60365
H        -10.90749        -1.51274         2.91612
H        -10.31532        -3.51108         1.61324
H         -9.37701        -5.57271         0.85236
H         -8.35648        -7.63598         0.31480
H         -7.13308        -9.88555        -0.55619
H         -5.02097       -11.11100        -0.86445
H         -2.42024       -11.08739        -1.07354
H          0.15576        -9.93262        -2.34528
H          2.73438       -10.85917        -1.33354
H          5.25101       -10.74148        -0.90044
H          7.12944        -9.63104         0.18868
H          8.04943        -7.71252         1.46583
H          9.17866        -5.34275         1.09968
H          9.57096        -2.76079         0.08045
