         324
 CSIRO Nanostructure Databank - Neutral Graphene Oxide Data Set
C          1.54774         2.00014        -1.95108
C          1.56915         3.39003        -2.21024
C          2.70551         1.34910        -1.59232
C          2.75003         4.11584        -2.13359
C          1.56920         6.34051        -1.86728
C          1.69010         7.52156        -1.25036
C          2.74800         5.58617        -2.37576
C          3.01867         8.23835        -1.11254
C          1.63678        10.36567        -0.53167
C          1.50290        11.71538        -0.34906
C          2.85354         9.76483        -1.02890
C          2.57478        12.63562        -0.60077
C          1.31963        14.60309         0.28590
C          1.31048        15.88289         0.76977
C          2.51516        13.97750        -0.21424
C          2.49464        16.71310         0.76243
C          2.46475        18.05649         1.30994
C          3.93873         2.06222        -1.50407
C          3.97824         3.46695        -1.80447
C          5.12474         1.39457        -1.16201
C          5.21459         4.17782        -1.74592
C          4.03740         6.32862        -2.51836
C          3.92797         7.86759        -2.31318
C          5.36804         5.52476        -2.44767
C          5.28870         8.58171        -2.17952
C          3.89277        10.58805        -1.38281
C          3.78499        12.06381        -1.25292
C          5.20649        10.01345        -1.79047
C          5.05123        12.88001        -1.33916
C          3.76091        14.78262        -0.13285
C          3.66730        16.21224         0.22958
C          5.05482        14.21890        -0.63385
C          4.85207        17.08745         0.14511
C          3.59420        18.81518         1.42158
C          4.86362        18.35023         0.91667
C          6.33473         2.10134        -1.03344
C          6.37163         3.51856        -1.30734
C          7.51924         1.41044        -0.68967
C          7.60724         4.24010        -1.05720
C          6.58313         6.33687        -1.94332
C          6.57231         7.84623        -1.88884
C          7.67413         5.64625        -1.21592
C          7.66172         8.54670        -1.14722
C          6.41685        10.68659        -1.26244
C          6.38475        12.17041        -1.39161
C          7.56655         9.98741        -0.97881
C          7.62159        12.94281        -1.08093
C          6.25967        15.10999        -0.80309
C          6.18154        16.52096        -0.30110
C          7.59471        14.43872        -0.87665
C          7.41817        17.16943         0.16720
C          6.03842        19.05935         1.03673
C          7.32773        18.50661         0.68252
C          8.72708         2.09835        -0.46983
C          8.74002         3.53611        -0.57572
C          9.91370         1.40401        -0.14311
C          9.91109         4.25422        -0.19364
C          8.82394         6.38243        -0.79138
C          8.80963         7.84855        -0.77427
C          9.94081         5.67566        -0.28904
C          9.99747         8.56156        -0.28637
C          8.74321        10.71223        -0.42958
C          8.74762        12.20375        -0.44029
C         10.01762         9.98222        -0.23336
C         10.03698        12.95731        -0.39669
C          8.77764        15.10710        -0.27063
C          8.65431        16.49499         0.14717
C          9.95740        14.41212        -0.07995
C          9.83763        17.19089         0.54809
C          8.50627        19.22451         0.92309
C          9.78115        18.60622         0.80961
C         11.07199         2.10165         0.25787
C         11.01892         3.52260         0.33069
C         12.29908         1.40868         0.53002
C         12.07007         4.22013         1.07829
C         11.26530         6.36038        -0.02781
C         11.15371         7.86328         0.13161
C         12.02373         5.73334         1.16175
C         12.24805         8.56876         0.67048
C         11.19201        10.69184         0.09280
C         11.27127        12.17104        -0.11127
C         12.32177         9.98720         0.58464
C         12.46531        12.93988         0.37353
C         11.13274        15.06671         0.46304
C         11.07039        16.50580         0.67010
C         12.29650        14.36429         0.74364
C         12.25928        17.23956         0.90390
C         10.98432        19.33118         0.96014
C         12.23656        18.67731         0.94274
C         13.45458         2.06657         0.95193
C         13.33218         3.46886         1.41519
C         14.71990         1.43311         0.98386
C         14.57563         4.23935         1.75257
C         13.40398         6.36212         1.27811
C         13.32750         7.82851         1.36266
C         14.57325         5.71193         1.58409
C         14.57217         8.55193         1.77637
C         13.52424        10.68695         1.01161
C         13.64946        12.16343         0.87522
C         14.60011        10.00234         1.54210
C         14.67395        12.84927         1.70120
C         13.46121        15.08942         1.30707
C         13.50269        16.55769         1.06304
C         14.68767        14.34962         1.75785
C         14.68914        17.27064         1.11811
C         13.47248        19.38335         0.95277
C         14.70200        18.70437         0.97162
C         15.91371         2.10327         1.32282
C         15.89076         3.52838         1.74628
C         17.15167         1.46875         1.25108
C         17.14922         4.31661         1.69517
C         15.84921         6.41725         1.76226
C         15.85266         7.81608         1.86684
C         17.11254         5.74246         1.80874
C         17.05533         8.55197         2.08536
C         15.72074        10.66658         2.14907
C         15.59869        12.09401         2.36067
C         16.83769         9.91607         2.49587
C         17.55519        13.25676         2.44736
C         16.00371        15.07423         1.53948
C         15.97086        16.53271         1.15527
C         17.34712        14.49670         1.86306
C         17.24012        17.34555         1.36505
C         15.94742        19.38286         0.73864
C         17.18389        18.72499         0.73618
C         18.37023         2.17578         1.47842
C         18.35791         3.62049         1.65457
C         19.57809         1.49159         1.46116
C         19.60043         4.33621         1.77121
C         18.35072         6.49400         1.86965
C         18.35227         7.94017         1.99220
C         19.58099         5.77765         1.83914
C         19.61392         8.68546         1.87347
C         18.74661        11.03707         2.36884
C         18.68202        12.40302         2.13210
C         19.73412        10.13504         1.81878
C         19.68424        12.97679         1.23322
C         18.47382        15.19821         1.27414
C         18.43934        16.53055         0.95718
C         19.75768        14.45739         1.22711
C         19.55425        17.17243         0.22838
C         18.37564        19.35310         0.30676
C         19.59528        18.64815         0.09811
C         20.82415         2.16869         1.65359
C         20.80313         3.60333         1.83247
C         22.00516         1.43998         1.59376
C         22.07350         4.32565         1.92557
C         20.83295         6.49567         1.75243
C         20.83261         7.95964         1.66333
C         22.02138         5.77653         1.68087
C         22.06668         8.64448         1.45664
C         20.92177        10.75204         1.32201
C         20.89939        12.15949         0.88884
C         22.13807        10.03859         1.22374
C         22.15000        12.85183         0.53068
C         20.98022        15.08033         0.68926
C         20.84389        16.41765         0.05473
C         22.15866        14.26005         0.31871
C         22.08817        17.13557        -0.21665
C         20.78994        19.25192        -0.30264
C         22.03659        18.53556        -0.45960
C         23.36244         2.00473         1.90823
C         23.37682         3.54188         1.84502
C         24.45493         1.34384         1.10277
C         24.54674         4.19284         1.21311
C         23.27799         6.45212         1.31967
C         23.35205         7.92180         1.55662
C         24.49497         5.66482         0.99338
C         24.66062         8.65110         1.35808
C         23.38704        10.71797         0.85873
C         23.36285        12.10878         0.46393
C         24.62501        10.04646         0.85980
C         24.54982        12.76011         0.04056
C         23.30100        14.95028        -0.07275
C         23.29981        16.39270        -0.23547
C         24.48629        14.15788        -0.54609
C         24.50616        17.07901        -0.47353
C         23.24339        19.17357        -0.81640
C         24.46950        18.45781        -0.82461
C         25.56425         2.00663         0.66247
C         25.60967         3.46808         0.74834
C         26.63849         1.31532        -0.04133
C         26.74868         4.15138         0.07510
C         25.81723         6.36835         0.93645
C         25.91785         7.84750         1.12726
C         26.84251         5.64100         0.13030
C         27.16947         8.57556         0.68375
C         25.82382        10.67822         0.38068
C         25.77225        12.05499        -0.02142
C         27.07391         9.98517         0.25911
C         26.97209        12.73087        -0.43381
C         25.78839        14.90257        -0.44737
C         25.81380        16.39375        -0.18457
C         26.96663        14.17539        -0.56823
C         27.03322        17.08165        -0.75289
C         25.67876        19.08018        -1.24409
C         26.93253        18.42721        -1.24992
C         27.78667         1.93500        -0.45892
C         28.03944         3.36788        -0.05171
C         28.84154         1.24589        -1.17025
C         29.11756         4.06239        -0.85341
C         28.12388         6.34838        -0.23020
C         28.35613         7.76957         0.19440
C         29.24530         5.53817        -0.78774
C         29.45376         8.45505        -0.51410
C         28.20774        10.60271        -0.31527
C         28.17973        12.01540        -0.58719
C         29.40748         9.84531        -0.66470
C         29.38391        12.70166        -0.98273
C         28.21395        14.86297        -0.77247
C         28.22374        16.29773        -0.81203
C         29.41198        14.13246        -1.03350
C         29.49679        16.90658        -0.93940
C         27.99878        19.12925        -1.93513
C         29.34417        18.88133        -1.70362
C         29.95376         1.89795        -1.61646
C         30.10539         3.33709        -1.47231
C         31.29901         4.01870        -1.96730
C         30.61783         6.13780        -0.89595
C         30.66693         7.67584        -0.83956
C         31.57516         5.31220        -1.66708
C         31.74749         8.40385        -1.50206
C         30.53911        10.52705        -1.23664
C         30.55433        11.95521        -1.31794
C         31.66421         9.75180        -1.67944
C         31.72528        12.66247        -1.71705
C         30.62051        14.81140        -1.41173
C         30.65825        16.25810        -1.41316
C         31.75486        14.04014        -1.75920
C         31.74219        17.04207        -1.90298
C         30.49287        19.14704        -2.49685
C         31.64065        18.34976        -2.41210
O         13.62733        12.68256        -0.50661
O          4.76179        14.07918         0.79462
O         29.62371        18.21354        -0.48085
O         15.16575         3.77726         3.01250
O          5.36323        17.31559        -1.22505
O          7.11452         7.14419        -3.06085
O         17.83512        10.49825         3.28286
O         22.96050         4.08479         3.14033
O         26.29678         4.95721        -1.04541
O         13.53654         8.23180         2.77495
O          4.19975        12.78582        -2.49616
O         20.74765        15.04816         2.15300
O          5.41190         9.61976        -3.20223
O          8.38618        11.51701         0.79284
O         24.12745         8.41393         2.70084
O         16.05883        15.51792         0.11851
O         19.78803        12.38334        -0.09685
O         13.76236        14.85073         2.76972
O         28.27635         8.20865         1.57809
O         16.52664        12.69920         3.21942
O          6.98970        15.07503        -2.05306
O          3.25406         5.95617        -3.69925
O         19.86680        16.47145        -1.04025
O         23.61366         6.09287        -0.10377
O         12.27384         3.63404         2.41820
O         26.23564         6.90930         2.21038
O         31.12895         6.78852         0.28960
O         28.32083         6.26629        -1.68792
O         10.92582        12.57887        -1.49230
O          7.32385        12.57507        -2.45615
O          5.69882         5.13442        -3.79932
H          6.12775         5.90961        -4.22826
O          3.69753         7.78597         0.08725
H          3.12344         7.97430         0.85892
O          3.24171         8.42115        -3.43452
H          3.78798         8.28770        -4.23645
O         25.95083        16.50617         1.29841
H         26.86609        16.23452         1.52677
O         11.28678         6.09085         2.34414
H         11.61909         5.52044         3.07365
O         23.62893         1.61761         3.29516
H         23.28211         2.35548         3.85257
O         17.31995        17.56680         2.80721
H         18.13313        18.08035         2.99529
O         28.55762         3.33312         1.32016
H         29.34067         2.74317         1.33565
O         12.10754         6.10905        -1.19293
H         11.65808         6.47969        -1.98191
O         24.26767        13.95130        -2.00433
H         23.40062        13.50275        -2.10746
H          0.59959         1.45054        -2.02775
H          0.63066         3.89180        -2.48308
H          2.69862         0.27229        -1.37095
H          0.57633         5.87135        -1.94466
H          0.78236         7.98906        -0.84334
H          0.78675         9.72814        -0.25663
H          0.55950        12.09452         0.06702
H          0.37804        14.03693         0.27561
H          0.37451        16.31463         1.15230
H          1.50772        18.43431         1.69788
H          5.10886         0.31013        -0.97942
H          3.55101        19.80412         1.90124
H          7.48576         0.31850        -0.56234
H          6.02307        20.04714         1.52245
H          9.91411         0.30448        -0.14764
H          8.44610        20.27666         1.23878
H         12.34777         0.33370         0.30092
H         10.94393        20.42395         1.08050
H         14.78490         0.37882         0.67494
H         13.46015        20.48214         0.89626
H         17.20144         0.40019         0.99423
H         15.90651        20.44060         0.43359
H         19.58490         0.40291         1.30586
H         18.33804        20.42177         0.04077
H         21.93734         0.34962         1.45739
H         20.80717        20.34268        -0.45088
H         24.39025         0.25121         0.98387
H         23.24662        20.24413        -1.06818
H         26.49741         0.24259        -0.24824
H         25.62871        20.11557        -1.61378
H         28.72250         0.16853        -1.35968
H         27.70970        19.85371        -2.71146
H         30.74135         1.34370        -2.14699
H         32.03390         3.42145        -2.52730
H         32.53974         5.75032        -1.96113
H         32.64688         7.85893        -1.81944
H         32.50370        10.25956        -2.17198
H         32.63963        12.11467        -1.97683
H         32.68503        14.54338        -2.05518
H         32.69342        16.52754        -2.10534
H         30.46320        19.95826        -3.23856
H         32.52616        18.71163        -2.95883
