         276
 CSIRO Nanostructure Databank - Neutral Graphene Oxide Data Set
C        -10.83018         0.59525        -1.84730
C         -9.71652         1.44395        -1.41985
C         -8.44896         0.72612        -1.08648
C         -7.52864         1.44717        -0.10241
C         -6.16563         0.74791        -0.05821
C         -4.97150         1.39359        -0.17868
C         -3.65421         0.67955        -0.12517
C         -2.36749         1.40647         0.16493
C         -1.21721         0.71748         0.94850
C          0.13214         1.44635         0.82722
C          1.29302         0.72542         0.87461
C          2.59000         1.49823         0.67535
C          3.87167         0.70306         0.86112
C          5.10837         1.45278         0.45318
C          5.96100         0.94287        -0.68975
C          7.31784         1.58947        -0.62623
C          8.52231         0.89364        -1.09078
C          9.78931         1.53447        -0.56167
C         11.01733         0.73844        -0.92662
C         -9.83666         2.79415        -1.28450
C         -8.80942         3.66574        -0.56724
C         -7.48359         2.89566        -0.53496
C         -6.20380         3.62670        -0.41495
C         -4.89762         2.88206        -0.32190
C         -3.63115         3.63106        -0.01067
C         -2.32019         2.90709         0.14917
C         -1.04800         3.65703         0.39900
C          0.18098         2.91958         0.82425
C          1.34499         3.61965         1.07110
C          2.59890         2.83367         1.45907
C          3.91382         3.63115         1.22723
C          5.13577         2.93161         0.67554
C          6.21466         3.67267        -0.00119
C          7.37644         2.97479        -0.41329
C          8.59576         3.69691        -0.83016
C          9.75962         3.01037        -0.94497
C         -8.59000         5.07979        -1.08246
C         -7.26703         5.82610        -1.00212
C         -6.34998         5.08207        -0.01035
C         -5.03192         5.75289         0.36812
C         -3.73581         5.02070         0.54294
C         -2.45734         5.76060         0.94164
C         -1.10909         5.19298         0.49459
C          0.05834         5.79101         1.25750
C          1.36212         5.07959         1.11520
C          2.52205         5.80500         1.17549
C          3.83828         5.11409         1.06709
C          4.89544         5.85533         0.30183
C          6.12171         5.11455        -0.20323
C          7.43021         5.88941        -0.31570
C          8.42789         5.15559        -1.24627
C         -7.30614         7.30543        -0.63935
C         -6.20113         7.96166        -0.18628
C         -4.94742         7.23098         0.15879
C         -3.72422         7.95701         0.62436
C         -2.52976         7.23366         1.21684
C         -1.26462         8.09992         1.38343
C          0.01945         7.26271         1.50379
C          1.28723         8.14114         1.51934
C          2.58190         7.26629         1.44739
C          3.87372         8.02647         1.09308
C          4.97005         7.30701         0.43880
C          6.03400         7.99533        -0.22743
C          7.16875         7.32999        -0.66522
C         -6.08601         9.42019        -0.18984
C         -4.95047        10.09040         0.10248
C         -3.70815         9.48341         0.71785
C         -2.39724         9.88987         0.05635
C         -1.22851         9.19923         0.32994
C          0.03089         9.59659        -0.19235
C          1.26238         9.12941         0.33627
C          2.44645         9.76392         0.00604
C          3.70331         9.53322         0.83003
C          4.89773        10.14892         0.14599
C          5.93445         9.45144        -0.34801
C        -10.74456        -0.74453        -2.00167
C         -9.44016        -1.52091        -2.01940
C         -8.32282        -0.74870        -1.31332
C         -7.28696        -1.51060        -0.57202
C         -6.29794        -0.72801         0.29143
C         -4.96576        -1.46268         0.46134
C         -3.67118        -0.84868        -0.05998
C         -2.43610        -1.43848         0.63041
C         -1.10304        -0.76077         0.38912
C          0.06899        -1.55161         0.90247
C          1.31294        -0.76164         1.03921
C          2.60321        -1.52909         0.98778
C          3.90124        -0.78216         0.76278
C          5.04231        -1.42780         0.01066
C          5.97767        -0.58781        -0.83152
C          7.16747        -1.28615        -1.43328
C          8.47065        -0.53448        -1.56150
C          9.75753        -1.38686        -1.57324
C         10.98596        -0.56826        -1.22867
C         -9.54570        -2.96310        -1.57176
C         -8.47645        -3.64150        -1.01051
C         -7.32872        -2.87206        -0.50827
C         -6.08540        -3.69373        -0.25724
C         -4.93977        -2.94893         0.38582
C         -3.60667        -3.69309         0.36809
C         -2.47236        -2.88636         0.98670
C         -1.20835        -3.66157         1.32451
C          0.06013        -2.92960         0.96765
C          1.26592        -3.73056         0.82353
C          2.57701        -3.01315         0.76379
C          3.75866        -3.68202         0.13008
C          4.95817        -2.88190        -0.33615
C          5.94312        -3.52594        -1.28228
C          7.28664        -2.81609        -1.55931
C          8.46992        -3.43186        -0.83381
C          9.61125        -2.68377        -0.76817
C         -8.46098        -5.07175        -0.86223
C         -7.41700        -5.80578        -0.24005
C         -6.30100        -5.03583         0.45302
C         -4.94876        -5.84123         0.44542
C         -3.79400        -5.03857         1.10888
C         -2.48324        -5.80434         1.09748
C         -1.27213        -5.14299         1.03325
C         -0.03247        -5.86159         0.80823
C          1.20519        -5.10266         0.63088
C          2.49577        -5.86075         0.33046
C          3.44534        -5.00187        -0.56021
C          4.70514        -5.79183        -0.93289
C          5.98224        -5.02045        -1.18085
C          7.27395        -5.63801        -0.77812
C          8.36970        -4.85817        -0.51943
C         -7.39290        -7.19483        -0.17944
C         -6.36908        -7.94404         0.57284
C         -5.12892        -7.21484         1.06194
C         -3.86074        -7.98912         1.31462
C         -2.54024        -7.25371         1.33077
C         -1.23405        -8.03935         1.05492
C         -0.06259        -7.24919         0.66091
C          1.05127        -7.97050         0.01828
C          2.28187        -7.21945        -0.32156
C          3.50517        -8.10970        -0.60287
C          4.75086        -7.28383        -0.91578
C          6.12088        -7.97397        -0.93933
C          7.22969        -7.08926        -0.27359
C         -6.25203        -9.40103         0.34096
C         -5.09363       -10.07889         0.47118
C         -3.84257        -9.46957         0.98560
C         -2.55108       -10.09450         0.61353
C         -1.35129        -9.46157         0.63038
C         -0.12157       -10.23794         0.15407
C          1.16922        -9.44540         0.21004
C          2.37462       -10.01709         0.43723
C          3.66123        -9.18892         0.47261
C          4.95837        -9.93351         0.22088
C          6.04673        -9.35629        -0.31375
O         -7.70229         0.22897        -2.24500
O         -2.71952        -1.85515         1.98218
O         -1.60769         0.68770         2.26500
O          2.02044        -1.17820         2.27133
O          4.46700        -6.57958        -2.17105
O          7.66060        -3.06091        -2.89455
O         -6.20496        -7.44127         1.98161
O         -3.96115        -8.97706         2.36398
O          8.47639         0.54738        -2.52188
O         -4.06054         3.44837        -1.39400
O         -1.68690        -7.72539         2.40758
O         -6.75455         3.23510        -1.74231
O          5.78593         1.96816         1.61053
O         -0.11827         6.31714         2.59658
O          1.27902        -7.37646        -1.35023
O         -2.63670         6.27763         2.29050
O          5.03538         5.46102        -1.12910
O          4.29647         4.52203         2.33101
O          4.21179        -0.08562         2.01719
O          3.57483         7.58356         2.45114
O          5.76168        -2.41374         0.81108
O         -5.05808        -2.28371         1.66613
O         -1.24603        -3.62799         2.85348
O         -1.41348         3.26693        -0.96767
O          1.26021         8.90709         2.68592
O         -3.86011         7.55464        -0.78551
O          6.02538        -0.89071        -2.26052
O          2.49845         2.45687         2.87424
O         -4.66825         5.17736         1.66573
O         -2.71948         1.02834        -1.21785
O          3.62861        -3.66962         1.57539
O          5.63811        -4.30590        -2.44777
O          3.78003        -8.59582         1.78117
H          3.88067        -9.31562         2.43698
O         -6.94726        -0.74113         1.59966
H         -6.55935        -1.50835         2.09910
O         -3.66882        -1.31325        -1.44841
H         -3.28445        -0.60525        -2.01565
O          8.48444        -7.72158        -0.49530
H          8.47840        -8.02045        -1.43246
O         -6.71068        -4.74485         1.79029
H         -6.66400        -5.58287         2.30952
O          8.04711         5.85652         1.00071
H          7.50628         6.39065         1.62028
O          3.47981        10.23515         2.06150
H          2.69438         9.79962         2.52021
O         -3.71378         9.92182         2.08902
H         -2.87791         9.60905         2.53000
O          9.98133        -1.81403        -2.93187
H          9.16607        -2.33369        -3.20365
O         -6.72061         5.80092        -2.34538
H         -6.64767         4.85474        -2.62175
O          6.53325        -8.16168        -2.30865
H          6.04045        -7.49996        -2.84959
O         -9.39692         3.89431         0.73714
H         -8.71305         4.35345         1.28860
O         -9.07915        -1.62488        -3.43108
H         -8.53067        -0.82831        -3.62982
O         -8.12635         1.50981         1.20121
H         -7.96472         0.65314         1.66856
O         -0.01477       -11.46089         0.88555
H         -0.01313       -11.24932         1.84154
O         -0.91396         5.71473        -0.84724
H         -1.26839         5.04099        -1.47940
O          9.66507         1.45686         0.88883
H         10.42066         1.93453         1.28969
O          2.75522        -4.64101        -1.76673
H          2.99417        -5.30561        -2.45406
O         -0.03567        -4.24077         3.34465
H          0.47477        -3.46785         3.69228
O         -7.11246         5.10696         1.23456
H         -6.47921         4.95025         1.97563
O         -5.64091        -3.94413        -1.62205
H         -6.34930        -4.44166        -2.08470
O         -4.15633        -4.79313         2.47107
H         -3.41723        -4.31929         2.91507
O         -1.36527         8.76778         2.66168
H         -0.41747         8.95706         2.95676
O         -4.57661        -6.18429        -0.90354
H         -4.14072        -5.39221        -1.31841
O          2.07304         3.62385         3.61449
H          2.91656         4.13679         3.72215
O          5.32812         1.47617        -1.88322
H          5.62420         0.90305        -2.63359
O          7.95961         5.20927        -2.59326
H          7.09221         4.75666        -2.64979
O         -0.79811        -0.70585        -1.01804
H         -1.39656        -0.05600        -1.46456
O          3.15680        -6.17933         1.56332
H          3.28739        -5.34311         2.07377
O         -3.15448        -3.96653        -0.97763
H         -3.29410        -3.14123        -1.50887
O          2.64965         1.83768        -0.73830
H          1.78223         2.20061        -1.01946
O          3.25103        -8.87000        -1.79704
H          3.14523        -8.23097        -2.53484
H         11.94101        -1.09187        -1.39361
H         11.99228         1.23168        -0.77957
H         10.68152         3.51532        -1.27261
H          9.41508         5.67785        -1.21534
H          7.97472         7.90602        -1.14387
H          6.76822         9.97415        -0.83970
H          4.88831        11.24572         0.06147
H          2.42486        10.61221        -0.69833
H          0.05677        10.37539        -0.97243
H         -2.37129        10.74638        -0.63697
H         -4.94975        11.18793         0.01420
H         -6.96131         9.98339        -0.54937
H         -8.18900         7.88799        -0.94616
H         -9.47864         5.64246        -1.41469
H        -10.80137         3.26788        -1.52833
H        -11.80626         1.08859        -1.97826
H        -11.64710        -1.30127        -2.29823
H        -10.42351        -3.53120        -1.91813
H         -9.32226        -5.63220        -1.26084
H         -8.16040        -7.77569        -0.71682
H         -7.13608        -9.91607        -0.06644
H         -5.05741       -11.14341         0.19232
H         -2.58807       -11.13634         0.25651
H         -0.29213       -10.52509        -0.92075
H          2.42429       -11.10230         0.62546
H          5.03655       -10.96465         0.60414
H          6.97374        -9.94532        -0.39685
H          7.05235        -7.05632         0.83681
H          9.26405        -5.34585        -0.09967
H         10.53099        -3.12915        -0.35521
