         276
 CSIRO Nanostructure Databank - Neutral Graphene Oxide Data Set
C        -11.17476         0.32424         0.68890
C         -9.97921         1.17587         0.62642
C         -8.75157         0.57264         1.21490
C         -7.52484         1.42400         1.42320
C         -6.17570         0.72554         1.50928
C         -4.88309         1.55441         1.55267
C         -3.66384         0.76328         1.02434
C         -2.38792         1.48497         1.16032
C         -1.08883         1.03964         0.52547
C          0.04105         1.38450         1.50029
C          1.34349         0.62083         1.42446
C          2.64087         1.34029         1.63960
C          3.94383         0.53103         1.38280
C          5.18510         1.40302         1.22432
C          6.40001         0.77474         0.63541
C          7.56549         1.49726         0.58960
C          8.82916         0.90554         0.11903
C         10.14724         1.41317         0.68656
C         11.27902         0.56056         0.10174
C         -9.97771         2.45395         0.16042
C         -8.82779         3.39085         0.31603
C         -7.57812         2.88623         1.02853
C         -6.27397         3.60464         0.77903
C         -4.94052         2.91840         0.87774
C         -3.59009         3.70292         0.90492
C         -2.46979         2.90974         1.57184
C         -1.30127         3.47185         1.96754
C          0.03356         2.81644         1.94936
C          1.30062         3.66823         1.78385
C          2.56203         2.85684         1.26960
C          3.85946         3.70659         1.58341
C          5.15934         2.90838         1.38743
C          6.42108         3.69994         1.13349
C          7.69982         2.92865         0.93601
C          8.94953         3.60364         0.45125
C         10.14523         2.89754         0.38378
C         -8.77010         4.52307        -0.67268
C         -8.08398         5.65491        -0.60631
C         -6.15825         5.07333         1.06634
C         -4.88982         5.76185         0.64444
C         -3.70753         5.23091         1.07666
C         -2.55461         6.26836         1.26373
C         -1.22843         5.66592         1.64354
C         -0.00189         5.99014         1.16079
C          1.27020         5.17255         1.38352
C          2.53307         5.77526         0.71225
C          3.84550         5.04317         0.80865
C          5.14208         5.75894         0.59077
C          6.33323         5.08644         0.62429
C          7.58273         5.66765         0.08503
C          8.83243         4.97819         0.13279
C         -7.50698         6.84711        -0.63223
C         -6.08243         7.06731        -1.13524
C         -5.01282         7.09404        -0.02887
C         -3.75529         7.86785        -0.27127
C         -2.44467         7.10986        -0.02002
C         -1.19356         7.99707        -0.04706
C          0.05092         7.35976         0.56971
C          1.38245         7.92586         0.35038
C          2.56025         7.23856         0.38586
C          3.82035         7.91942        -0.03240
C          5.18238         7.24523         0.21083
C          6.12507         7.35066        -1.02080
C          7.48470         6.82600        -0.66153
C         -5.96988         8.23944        -2.08991
C         -4.86930         8.98748        -2.24807
C         -3.69925         9.00626        -1.28682
C         -2.34486         9.13031        -1.93634
C         -1.15437         8.88113        -1.27370
C          0.05575         9.28595        -1.92791
C          1.32175         9.33956        -1.30731
C          2.57282         9.31332        -1.90349
C          3.78466         9.04461        -1.12620
C          5.06564         9.44140        -1.77733
C          6.18042         8.71753        -1.64834
C        -11.09595        -1.02323         0.76019
C         -9.77689        -1.68351         0.43309
C         -8.62892        -0.95774         1.17061
C         -7.29179        -1.42593         0.55062
C         -6.08490        -0.73209         1.18471
C         -4.80907        -1.31509         0.66444
C         -3.84374        -0.35785         0.01658
C         -2.51069        -1.02686        -0.38288
C         -1.18531        -0.40765         0.00723
C          0.01641        -1.30919         0.19060
C          1.27116        -0.75132         0.80314
C          2.53054        -1.30143         0.20055
C          3.82593        -0.59005         0.35728
C          5.06254        -1.40107         0.19849
C          6.27791        -0.58318        -0.00658
C          7.50763        -1.16864        -0.62806
C          8.78809        -0.47718        -0.34868
C          9.84287        -1.44303         0.16354
C         11.16789        -0.76264        -0.15260
C         -9.63229        -3.17682         0.67469
C         -8.40831        -3.77448         0.79335
C         -7.20270        -2.93962         0.75915
C         -5.92985        -3.40681         0.93002
C         -4.76686        -2.65553         0.46782
C         -3.96349        -3.17185        -0.73477
C         -2.54300        -2.50798        -0.76367
C         -1.24085        -3.26604        -0.84681
C          0.10863        -2.46133        -0.82247
C          1.34937        -3.43981        -0.68699
C          2.56096        -2.75207        -0.06665
C          3.70256        -3.47342         0.13566
C          5.00908        -2.78372         0.18079
C          6.14904        -3.69690         0.05516
C          7.97926        -2.51631        -1.15126
C          8.79660        -3.80736         0.65883
C          9.32882        -2.83662        -0.37301
C         -8.33935        -5.30429         1.01237
C         -7.25303        -6.09874         0.27459
C         -5.90303        -5.53123         0.31359
C         -5.04228        -5.62246        -0.73335
C         -3.87199        -4.71513        -1.13842
C         -2.61890        -5.46118        -0.63689
C         -1.27401        -4.74595        -0.70559
C         -0.13594        -5.46229        -0.49605
C          1.02467        -4.71625         0.12172
C          2.27341        -5.58115         0.35875
C          3.63707        -4.98704        -0.04556
C          4.74760        -5.70621         0.69604
C          6.10630        -4.98091         0.73956
C          7.41035        -5.80490         1.04480
C          8.61112        -5.13615         0.40572
C         -7.37500        -7.28113        -0.37573
C         -6.05287        -7.91054        -0.78759
C         -5.17769        -6.89233        -1.56268
C         -3.76805        -7.53757        -1.78493
C         -2.45709        -6.79199        -1.42667
C         -1.34268        -7.66586        -0.77151
C          0.01050        -6.92691        -0.87649
C          0.86557        -7.76690         0.08118
C          2.18011        -7.07907         0.49523
C          3.45442        -7.93989         0.65816
C          4.75814        -7.15938         0.62571
C          5.99182        -7.86844         0.53278
C          7.23102        -7.24580         0.65736
C         -6.12109        -9.23353        -1.51647
C         -4.98633        -9.78542        -1.97431
C         -3.70458        -9.01946        -1.97091
C         -2.41049        -9.71565        -1.76818
C         -1.29526        -9.08204        -1.30430
C         -0.01480        -9.73849        -1.17596
C          1.06329        -9.12895        -0.57839
C          2.35492        -9.75753        -0.65205
C          3.50565        -9.19102        -0.17778
C          4.78272        -9.85884        -0.27748
C          5.94083        -9.27030         0.12376
O         -1.97136        -2.81836        -2.04515
O          7.02068        -3.64203        -0.97717
O         -1.70559        -0.31755        -1.35530
O         -2.78851         0.45241         2.14847
O          3.82936         9.33309         0.30881
O          5.19882        -4.99379         1.88957
O         -4.62782        -2.52496        -1.78207
O         -3.66488        -8.08461        -3.13827
O          3.04826        -0.39769        -0.85260
O         -5.67124        -4.68142         1.40819
O          7.35072         3.46131         2.25160
O          9.05434         0.58631        -1.30750
O          3.06671         5.03765        -0.45015
O         -8.41036         1.11493         2.53504
O          1.33660         9.30238         0.10545
O          1.74009        -3.80322        -1.97723
O         -1.35133         4.69573         2.62512
O          1.97838         0.74804         2.75665
O          2.15324        -6.20414         1.67591
O         -6.16184        -0.30494         2.56321
O          6.58380        -0.45848        -1.48164
O         -0.03104        -7.91918         1.23317
O         -0.77924         8.39994         1.26117
O         -4.68362         8.23418         0.80349
O         -0.17397         1.69882         2.90441
O         -6.87523         5.64483         1.86659
O          1.51451         4.71858         2.74616
O          0.40274        -1.66348         1.53996
O          5.40395         2.03498         2.53501
O         -1.44314        -7.82839         0.69616
O         -5.59163         3.06589        -0.40870
O         -8.55513         3.68766         1.72149
O          5.79838         7.92677         1.31598
H          5.39525         8.82404         1.37154
O          3.40462        -8.43386         2.03660
H          3.11058        -7.67787         2.59537
O         -7.16347        -1.05281        -0.82961
H         -7.89769        -1.46849        -1.33958
O         -3.85357        -4.71210        -2.57001
H         -4.13748        -3.78665        -2.82454
O         10.17157         1.21535         2.13088
H          9.53835         1.84380         2.54182
O         -2.95528         7.12323         2.34517
H         -2.85053         6.62729         3.18365
O          7.99596        -3.22362         1.59651
H          7.74851        -3.92349         2.25928
O         -0.78519         1.88814        -0.60127
H         -1.19311         1.46885        -1.39804
O         -8.13772        -5.54226         2.41282
H         -7.24519        -5.19561         2.63911
O         -5.77264        -6.61759        -2.82728
H         -5.20114        -5.92872        -3.24622
O         -5.30356        -8.17254         0.43857
H         -5.87964        -8.67881         1.04818
O         -9.66142        -1.49302        -1.01994
H        -10.40608        -1.97565        -1.43626
O          8.22170        -2.41985        -2.51565
H          7.53950        -1.84275        -2.92298
O          0.56860        -4.25772         1.40658
H          0.74628        -4.97145         2.06157
O         -3.13136         3.67731        -0.49978
H         -3.93676         3.54306        -1.06143
O          5.55854         6.45181        -2.02454
H          6.16474         6.43063        -2.79422
O          3.87261         4.08356         2.96425
H          4.27624         3.35167         3.48181
O          9.74591        -1.49545         1.60049
H         10.04971        -0.63244         1.97766
O         -4.64539         1.91346         2.92264
H         -4.14533         1.17338         3.34024
O          7.57074        -5.71245         2.49164
H          6.69422        -5.91799         2.89242
O         -4.47216         0.16760        -1.16119
H         -4.72562        -0.63593        -1.69440
O          0.27062        -1.82929        -2.08125
H          0.76237        -2.49049        -2.64024
O         -2.87799        -5.64506         0.76386
H         -2.22643        -6.28405         1.14230
O          4.21293        -0.24517         2.57542
H          4.29757         0.37717         3.33057
O         -2.26722         6.22982        -1.15362
H         -2.66999         5.33645        -0.97194
O         -3.83826        10.25999        -0.55139
H         -4.32166        10.04359         0.28125
O          2.40446         2.64287        -0.14643
H          2.39741         3.49752        -0.64335
O          0.61329        -6.98269        -2.16658
H          0.00987        -6.49771        -2.78119
O         -8.68480        -1.44163         2.51879
H         -8.21139        -0.78125         3.08075
O          3.83192        -5.29191        -1.43906
H          3.10030        -4.79611        -1.93032
O         -1.87441        -6.39137        -2.68909
H         -2.36141        -6.87671        -3.39951
O         -5.69050         5.89049        -1.89313
H         -6.35308         5.74596        -2.60060
H         12.02428        -1.32834        -0.55052
H         12.23941         1.06497        -0.08981
H         11.07004         3.41378         0.08436
H          9.71787         5.50303        -0.25736
H          8.37750         7.24193        -1.15422
H          7.12841         9.05801        -2.09350
H          5.07716        10.40690        -2.30649
H          2.66467         9.32473        -2.99873
H         -0.01983         9.58902        -2.98399
H         -2.29907         9.69460        -2.88258
H         -4.86030         9.76578        -3.02814
H         -6.80894         8.37226        -2.79257
H         -8.02460         7.70862        -0.17378
H         -9.37979         4.35527        -1.58207
H        -10.89569         2.86420        -0.29004
H        -12.15167         0.82778         0.75901
H        -12.00543        -1.63313         0.87503
H        -10.54381        -3.79716         0.66146
H         -9.33909        -5.73382         0.74635
H         -8.33768        -7.79006        -0.53446
H         -7.07689        -9.77737        -1.57641
H         -4.98749       -10.78014        -2.44728
H         -2.35274       -10.78174        -2.04117
H          0.11046       -10.73468        -1.62830
H          2.41236       -10.72555        -1.17520
H          4.79895       -10.87913        -0.68952
H          6.89294        -9.81498         0.04805
H          8.13967        -7.84778         0.50876
H          9.14816        -5.63596        -0.40973
H         10.04738        -3.33332        -1.05560
