         283
 CSIRO Nanostructure Databank - Neutral Graphene Oxide Data Set
C        -10.28346         1.01995         2.13176
C         -8.94697         1.73769         2.11967
C         -7.99286         1.00993         1.20312
C         -7.12897         1.63310         0.36545
C         -6.18812         0.84620        -0.49638
C         -5.02819         1.53723        -1.18426
C         -3.78232         0.77514        -1.60231
C         -2.47220         1.49231        -2.05916
C         -1.13170         0.70830        -1.79014
C          0.12613         1.44695        -1.40806
C          1.32413         0.69282        -0.94762
C          2.43018         1.38624        -0.54335
C          3.55717         0.66871         0.10802
C          4.74072         1.48257         0.66501
C          6.01793         0.64759         0.83714
C          7.06315         1.39934         1.65215
C          8.42668         0.61841         1.81046
C          9.70826         1.41268         1.69758
C         10.91724         0.59739         1.86987
C         -8.96959         3.22615         1.89104
C         -8.14044         3.86502         1.04599
C         -7.33847         3.10216        -0.01161
C         -5.94641         3.80204        -0.19467
C         -4.98405         3.05799        -1.12531
C         -3.69453         3.75497        -1.44236
C         -2.39656         2.98819        -1.58886
C         -1.17871         3.62815        -0.97250
C          0.07250         2.80362        -0.72521
C          1.30933         3.61283        -1.14343
C          2.55942         2.82501        -0.92512
C          3.91415         3.45585        -0.85374
C          5.03844         2.71577        -0.19073
C          6.32361         3.43714         0.14396
C          7.25746         2.86284         1.17518
C          8.56272         3.58907         1.34192
C          9.75982         2.76624         1.62309
C         -7.94322         5.36117         1.21291
C         -7.14994         6.07791         0.14019
C         -6.12307         5.26228        -0.57383
C         -4.88790         5.98009        -1.01117
C         -3.54119         5.27576        -1.28785
C         -2.53861         5.74817        -0.20255
C         -1.22859         4.85993        -0.04056
C          0.32080         5.64996        -0.05925
C          1.23717         5.14408        -1.21956
C          2.67281         5.77104        -1.10892
C          3.97887         4.95382        -1.02401
C          5.24606         5.66633        -0.61120
C          6.47589         4.89311        -0.18631
C          7.68466         5.64656         0.26832
C          8.73026         4.96557         0.78960
C         -7.19741         7.42510        -0.00718
C         -6.16932         8.20701        -0.84713
C         -4.86700         7.43502        -0.65651
C         -3.56087         8.08839        -0.42054
C         -2.32100         7.23645        -0.50309
C         -1.01931         7.93355        -0.33821
C          0.24119         7.21581         0.11826
C          1.37568         7.98922        -0.62809
C          2.70165         7.21571        -0.71137
C          3.84192         7.81347         0.09332
C          5.16798         7.04133         0.01410
C          6.44261         7.78193         0.25878
C          7.75126         7.10277        -0.15371
C         -5.96045         9.63013        -0.35277
C         -4.76356        10.23650        -0.26600
C         -3.46266         9.57587        -0.69361
C         -2.18962        10.14823        -0.11036
C         -1.01399         9.41470        -0.06330
C          0.23877        10.03289         0.22560
C          1.47975         9.37516        -0.00684
C          2.69846        10.00523         0.12523
C          3.97259         9.31596        -0.31239
C          5.23096         9.94691         0.24155
C          6.36287         9.25701         0.44417
C        -10.34051        -0.33012         2.12249
C         -9.15289        -1.16779         1.94253
C         -7.93195        -0.45434         1.45739
C         -6.92217        -1.27094         0.73510
C         -6.10837        -0.64100        -0.36174
C         -5.00154        -1.50683        -1.01054
C         -3.71691        -0.73706        -1.46212
C         -2.40398        -1.47792        -1.51136
C         -1.10023        -0.77144        -1.56020
C          0.07287        -1.47540        -1.36955
C          1.36538        -0.75829        -1.24289
C          2.64176        -1.50349        -1.01524
C          3.68852        -0.79264        -0.18856
C          5.04757        -1.45519        -0.14253
C          6.08220        -0.70102         0.67754
C          7.34614        -1.41217         0.90650
C          8.49402        -0.70240         1.09894
C          9.82823        -1.29613         0.71201
C         10.96117        -0.70321         1.51232
C         -9.17366        -2.52705         2.05247
C         -7.90606        -3.34262         1.87363
C         -7.10773        -2.77212         0.66964
C         -5.73455        -3.39719         0.64933
C         -4.66079        -2.70974        -0.13112
C         -3.49174        -3.50962        -0.56507
C         -2.39023        -2.91069        -1.12245
C         -1.15557        -3.65852        -1.17821
C          0.10809        -2.92259        -1.11085
C          1.25909        -3.60556        -0.77663
C          2.64725        -3.04517        -1.04001
C          3.73697        -3.67973        -0.18982
C          4.86937        -2.89023         0.29682
C          6.12362        -3.62881         0.74800
C          7.41386        -2.90940         1.03005
C          8.66080        -3.54824         0.48905
C          9.82500        -2.79587         0.52744
C         -8.01710        -4.85546         1.70965
C         -6.91600        -5.57576         1.38575
C         -5.66519        -4.86651         0.97757
C         -4.56764        -5.65843         0.33191
C         -3.61444        -4.97095        -0.58541
C         -2.44517        -5.76638        -1.15795
C         -1.17780        -5.03734        -1.12340
C         -0.11596        -5.78296        -0.35552
C          1.17922        -4.98673        -0.21363
C          2.41246        -5.74108         0.18785
C          3.72290        -5.03453         0.10898
C          4.94053        -5.73487         0.41620
C          6.15058        -5.06403         0.51252
C          7.43329        -5.72606         0.28230
C          8.62987        -4.94208         0.21858
C         -6.79068        -7.08372         1.62297
C         -5.91321        -7.86600         0.60565
C         -4.58371        -7.15843         0.34992
C         -3.49031        -7.93244        -0.29375
C         -2.43269        -7.28980        -1.17805
C         -1.09885        -7.95622        -0.93700
C          0.04497        -7.23745        -0.78593
C          1.42401        -7.86728        -0.78347
C          2.28700        -7.27953         0.36174
C          3.64681        -7.98296         0.48910
C          4.92932        -7.21474         0.53569
C          6.23396        -7.97766         0.24308
C          7.43776        -7.09018         0.03729
C         -5.60284        -9.28643         1.05294
C         -4.58278        -9.99087         0.53477
C         -3.69746        -9.42086        -0.55862
C         -2.33475       -10.08607        -0.72721
C         -1.16810        -9.41904        -0.94440
C          0.13729       -10.14281        -1.20997
C          1.37032        -9.38583        -0.72269
C          2.45650       -10.07871        -0.34456
C          3.76508        -9.47694         0.09525
C          4.82944        -9.60280        -0.99539
C          5.98417        -8.92861        -0.91528
O          4.40876         1.95789         1.94419
O         -8.40373         1.60465         3.47325
H         -8.22791         0.65308         3.63549
O         -3.22221        -1.28375        -2.72298
O          1.62350        -5.01868         1.19696
O         -0.17098         1.21821        -2.79653
O         -5.93734         5.64801        -1.96604
O         -2.59868         1.55205        -3.47818
H         -1.75507         1.91246        -3.83140
O          7.33668        -4.42826         2.89864
H          6.40191        -4.37137         3.22083
O          7.48088         3.68048         2.37061
O          5.55222        -1.52566        -1.50039
H          5.51843        -0.63404        -1.90760
O         -3.42874        -7.63908         1.12495
O          5.79950         7.01911         1.34582
O          2.09698        -7.46822        -2.00995
H          1.55306        -7.75850        -2.77194
O         10.03605        -0.80013        -0.67127
H         10.98025        -0.93259        -0.90201
O          1.56818        -7.54013         1.57604
H          2.19225        -7.38854         2.32007
O          6.95244         3.85318        -1.10552
O          2.38047        -0.96922        -2.34119
O          5.11430        -3.16954         1.70501
O         -6.62940        -0.80284         2.09028
O          2.96098        -3.45781        -2.39996
H          2.69711        -2.70657        -2.98646
O         -4.74391        -2.54525         1.31513
O          0.20652         2.44013         0.65964
H          0.32643         3.25940         1.19943
O          4.27335        -7.67341         1.77885
O          8.53705         0.20234         3.27755
O          2.92777         6.83076        -2.08529
O         -5.57814        -2.08192        -2.18952
H         -5.73472        -1.35123        -2.82785
O         -8.00496         3.16692        -1.22305
O         -4.71950         3.54962        -2.46027
O          4.93108         5.47035        -2.00800
O          3.13867        -0.34943         1.07657
O          4.84672         2.62175        -1.62537
O          6.43544         1.50000         2.94289
H          6.61928         2.40105         3.30429
O          0.95659         8.26129        -1.97064
O          1.00066         5.13699         1.08535
H          0.94812         5.82488         1.79655
O          1.98362         3.05009        -2.28752
O         -8.82910        -2.19980        -0.84254
H         -8.41157        -1.54461        -1.46179
O         -6.94441        -0.04365        -1.40150
O         -7.11986         5.47365         2.41251
H         -6.87710         6.41632         2.53497
O         -1.49693         7.53354        -1.65243
H          0.80111         7.39923        -2.43560
O          7.62723        -3.06512         2.54557
O         -1.44096         3.77904        -2.38062
O          4.20850       -10.24757         1.22219
H          5.08928        -9.88894         1.49626
O         -6.19956        -7.23464         2.91929
H         -5.37156        -6.70114         2.93194
O         -3.22390         5.67346         1.06191
H         -3.88088         4.92421         1.06440
O         -3.54743        -5.34945        -2.01459
O         -6.61703        -7.91496        -0.65600
H         -6.13658        -8.55623        -1.23491
O         -5.27670         3.80119         1.09971
H         -5.87611         4.24414         1.76354
O         -7.75602        -3.14658        -0.59904
O         -4.39252         7.73156         0.71693
O         -1.28648         4.31864         1.27267
H         -1.88427         4.88943         1.81610
O          0.11688       -11.46758        -0.68898
H          0.04054       -11.41313         0.28572
O         -4.86527         1.06531        -2.53856
O         -4.44281        -9.57224        -1.80063
H         -3.89793        -9.12742        -2.49757
O          7.51316        -0.74131         3.59903
H          6.69901        -0.17196         3.66929
O          7.94131         7.19651        -1.56736
H          7.33059         6.57613        -2.01935
O         -7.12012        -3.19460         3.07933
H         -6.70984        -2.29494         3.07314
O         -3.09634         5.76462        -2.55401
H         -3.61517         5.30065        -3.24645
O         -4.45619        -5.18352         1.72302
O          0.37450         7.49342         1.53282
H         -0.51252         7.47500         1.94871
O          0.66620         5.51922        -2.46695
H          1.05605         4.95319        -3.16862
O          4.06671         9.43326        -1.74934
H          3.26385         9.03790        -2.15824
O          3.38945         7.76987         1.46066
H          4.19343         7.67372         2.02656
O         -0.71831        -5.87672         0.96624
H         -0.00196        -6.17442         1.57999
O         -6.58169         8.27065        -2.21531
H         -6.62291         7.34281        -2.55015
O          6.56542        -8.79122         1.40838
H          6.36227        -8.25486         2.20602
O         -3.33727         9.72101        -2.13342
H         -3.33874        10.67501        -2.35406
O         -2.74480        -7.66744        -2.56060
H         -3.28617        -6.93350        -2.93931
H         11.87806        -1.29307         1.66338
H         11.80004         1.07897         2.31839
H         10.73860         3.27079         1.61003
H          9.68282         5.47832         0.99525
H          8.61558         7.61509         0.33766
H          7.27442         9.77263         0.78469
H          5.22420        11.03765         0.39384
H          2.74005        11.04630         0.48559
H          0.24559        11.08986         0.53718
H         -2.14124        11.23277         0.08623
H         -4.71357        11.28340         0.07652
H         -6.86470        10.19648        -0.07603
H         -7.96795         7.99550         0.53878
H         -8.92277         5.88068         1.39703
H         -9.54393         3.81491         2.62567
H        -11.20339         1.60814         2.26652
H        -11.30866        -0.84264         2.23169
H        -10.10247        -3.02982         2.36537
H         -8.93793        -5.36728         2.03123
H         -7.80844        -7.54575         1.65674
H         -6.24301        -9.73493         1.82807
H         -4.39710       -11.02258         0.87224
H         -2.30626       -11.18848        -0.72121
H          0.23438       -10.24141        -2.33041
H          2.40728       -11.17942        -0.33037
H          4.66164       -10.31469        -1.81801
H          6.77325        -9.06348        -1.67072
H          8.39269        -7.59912        -0.16710
H          9.57219        -5.45392        -0.03329
H         10.77629        -3.26236         0.21949
