         280
 CSIRO Nanostructure Databank - Neutral Graphene Oxide Data Set
C         30.63780        32.84040        -2.91545
C         31.06404        33.25726        -1.85519
C         30.77732        36.18168        -1.23100
C         30.77925        37.40244        -1.38930
C         30.68954        40.48551        -0.76515
C         30.59506        41.66830        -0.40479
C         31.45158        29.63441        -4.25964
C         30.91331        30.75580        -4.16938
C         32.93853        31.72304        -0.32341
C         30.31758        32.00035        -4.03248
C         32.90954        33.11635        -0.25267
C         31.61755        33.83128        -0.59209
C         33.01916        35.98755        -0.58725
C         31.83269        35.30756        -0.79141
C         33.24331        37.44103        -1.04111
C         31.93885        38.35607        -1.43724
C         33.06728        40.41972        -0.41135
C         31.76409        39.49262        -0.43547
C         32.88456        41.76614         0.30397
C         31.64392        42.48983         0.14070
C         32.72319        44.31810         1.14480
C         31.68985        43.80621         0.62665
C         35.65400        27.47963        -0.45250
C         35.34989        28.80660        -0.01246
C         34.23354        29.53447        -0.32907
C         35.25817        31.61229         0.48352
C         34.15291        30.96332        -0.05556
C         35.21213        33.08078         0.64945
C         34.07385        33.85538         0.10907
C         35.39824        35.96237         0.16741
C         34.15809        35.25124        -0.06278
C         35.38821        37.43574         0.20508
C         34.24350        38.18119        -0.16528
C         35.32544        40.21170         0.70243
C         34.22146        39.57454         0.09493
C         35.23493        41.60622         1.29642
C         34.00752        42.38314         0.87739
C         35.18680        44.37206         1.78855
C         33.99418        43.74294         1.32301
C         35.31229        45.62809         2.37069
C         38.04602        27.45247        -0.35898
C         36.69182        26.79741        -0.34939
C         37.88860        28.67167         0.59633
C         36.54094        29.38086         0.70879
C         37.78246        31.62523         1.13983
C         36.46717        30.86921         0.96699
C         37.80392        33.03538         0.62405
C         36.53791        33.83200         0.75726
C         37.88366        35.91737         0.66178
C         36.56526        35.25187         0.39217
C         37.85259        37.41254         0.31179
C         36.55570        38.11941         0.62586
C         37.74796        40.25341         1.40627
C         36.53173        39.49975         0.87309
C         37.79049        41.71276         0.86998
C         36.51646        42.43066         1.20785
C         37.72650        44.55066         1.90430
C         36.51386        43.77479         1.60052
C         37.59142        45.74207         2.63802
C         36.28621        46.28197         2.83408
C         40.53128        24.55768         0.05758
C         39.45729        25.29909        -0.04995
C         40.59745        27.38417         0.02437
C         39.23480        26.62477         0.00823
C         40.50454        28.78410         0.61165
C         39.17893        29.39471         0.92329
C         40.36405        31.65475         0.91892
C         39.10900        30.90155         1.15167
C         40.38280        32.99129         0.60584
C         39.10895        33.70339         0.28956
C         40.36292        35.95061         0.37967
C         39.10721        35.21618        -0.01459
C         40.38002        37.36128         0.49484
C         39.10161        38.06352         0.84653
C         40.26439        40.24801         0.58274
C         39.07885        39.50886         1.18866
C         40.35488        41.71758         0.99531
C         39.06084        42.42135         1.37279
C         40.53988        44.57894         1.73436
C         39.08656        43.87032         1.78955
C         40.58476        46.13285         1.67035
C         39.43439        46.96535         2.16488
C         40.26609        48.79446         0.94087
C         39.31709        48.20923         1.61609
C         43.07434        24.58028         0.63580
C         41.75747        25.03458         0.36648
C         43.07441        27.32873         0.60094
C         41.70461        26.61604         0.76962
C         42.96778        28.80098         1.00500
C         41.67955        29.45164         0.94305
C         42.89855        31.58652         0.72063
C         41.63794        30.93367         1.33958
C         42.85136        33.10004         0.67725
C         41.63675        33.73281         0.56590
C         42.81740        35.93075         0.08887
C         41.62372        35.23174         0.77101
C         42.91761        37.38916         0.57395
C         41.57884        38.07518         0.53808
C         42.71318        40.25042         0.04953
C         41.61491        39.54631         0.85809
C         42.67036        41.74213        -0.12681
C         41.57520        42.49489         0.60737
C         42.72594        44.73651         0.17433
C         41.39041        44.01119         0.47336
C         42.76560        46.09692         0.23599
C         41.67029        46.86048         0.93073
C         42.78785        48.87560         0.26253
C         41.52226        48.37846         0.65034
C         44.07298        25.14154         1.12828
C         45.38366        27.36754         1.78028
C         44.17671        26.58930         1.39458
C         45.39853        28.84762         1.51676
C         44.16766        29.50421         1.30491
C         45.39712        31.70919         0.93319
C         44.14024        31.02621         1.42827
C         45.36267        33.16714         0.86674
C         44.09451        33.85996         0.61973
C         45.34321        35.92195         0.00241
C         44.12337        35.21208         0.32442
C         45.21624        37.32739        -0.59266
C         44.02965        38.15429        -0.11935
C         45.16463        40.33921        -0.52390
C         43.99336        39.52342        -0.20480
C         45.17318        41.72214        -0.60028
C         43.87227        42.51643        -0.66750
C         45.20679        44.63638        -0.79161
C         44.02723        43.92594        -0.02067
C         45.22239        46.18450        -0.56873
C         43.98664        46.89240        -0.16346
C         43.90272        48.29158         0.32674
C         47.77234        27.49867         1.69618
C         46.74731        26.83710         1.90501
C         47.99979        28.87697         1.38873
C         46.67557        29.59509         1.55953
C         47.89718        31.73854         0.63941
C         46.67677        31.08429         1.18347
C         47.87115        33.06077         0.32215
C         46.68115        33.91997         0.58510
C         47.81430        35.90976        -0.57684
C         46.57105        35.28613         0.01246
C         47.78884        37.39382        -0.82864
C         46.50657        38.11347        -0.42809
C         47.67549        40.33449        -0.90453
C         46.45348        39.60381        -0.51119
C         47.69370        41.73960        -0.71332
C         46.44840        42.45565        -0.58594
C         47.76443        44.51455        -0.34570
C         46.49001        43.85728        -0.49262
C         47.58087        45.93268        -0.17580
C         46.59710        46.65031        -0.38712
C         50.43599        29.00284         0.74315
C         49.11498        29.50311         0.92777
C         50.38572        31.64957         0.20447
C         49.07164        30.86774         0.20989
C         50.25956        32.91689        -0.62141
C         49.10188        33.81639        -0.13027
C         49.95457        35.34038        -1.91156
C         48.70172        34.83026        -1.23903
C         49.87894        37.59271        -2.26257
C         48.59657        38.22894        -1.85436
C         50.06402        40.31075        -1.42900
C         48.79776        39.64637        -1.35149
C         50.13775        41.70299        -1.15472
C         48.95352        42.41009        -0.79310
C         50.30755        44.30274        -0.44652
C         48.96042        43.82045        -0.45624
C         51.48271        29.43832         0.22131
C         52.57639        31.56092        -0.82569
C         51.77553        30.93369         0.29696
C         52.56033        32.73900        -1.20841
C         51.56019        33.78731        -0.75068
C         52.17721        35.95075        -2.11188
C         51.24753        34.94487        -1.67185
C         52.19117        37.17408        -2.29880
C         51.14492        38.16031        -2.12313
C         52.41153        40.31611        -1.54249
C         51.25786        39.51316        -1.70387
C         52.60583        41.49671        -1.17329
C         51.48784        42.49289        -1.43046
C         51.41097        43.75214        -0.59791
O         38.31916        33.00627        -0.75982
O         46.77936        30.60892         2.61902
O         42.20383        40.85265        -1.17465
O         41.41289        41.98779         1.96000
O         39.19624        29.97067         2.27224
O         37.04001        28.50517         1.75909
O         46.17520        33.79878         1.93751
O         46.63310        38.87439         0.79087
O         33.89783        37.33215        -2.40446
O         49.71264        36.34844        -2.89947
O         44.36122        26.98148         2.76248
O         35.73745        33.55914         1.93892
O         38.67194        46.42292         3.17191
O         39.25102        38.52448         2.25829
O         39.08720        42.78004         2.78241
O         44.36386        46.80679        -1.56945
O         41.78947        46.63618         2.37593
O         48.50852        36.85161         0.30146
O         36.94261        31.33197         2.26940
O         43.47998        42.73806        -2.09919
O         40.96742        27.52678        -1.36959
H         40.19165        27.93217        -1.82992
O         41.67981        31.03187         2.76956
H         40.86725        30.59423         3.11529
O         33.41438        40.78320        -1.75844
H         32.61476        41.14912        -2.19481
O         29.44214        32.44472        -4.91424
H         29.30453        31.78047        -5.62063
O         51.49763        42.84022        -2.78896
H         52.30204        43.36231        -2.98594
O         33.19661        28.91639        -0.96002
H         33.44068        27.98213        -1.13776
O         31.80209        31.10054        -0.65908
H         31.94830        30.14169        -0.83067
O         38.28761        28.01886        -1.67718
H         38.09433        27.32395        -2.34240
O         39.03166        35.32164        -1.45918
H         38.52859        34.53461        -1.78133
O         41.35440        26.63924         2.14206
H         42.11383        26.33646         2.68487
O         49.53408        34.57991         1.00016
H         49.89029        33.97154         1.68116
O         47.85241        34.19033        -2.20685
H         48.33710        33.39688        -2.54043
O         35.02753        41.37264         2.73279
H         35.88457        41.02440         3.09156
O         43.52624        27.27332        -0.76106
H         42.77401        27.52824        -1.34822
O         40.01028        40.11105        -0.82839
H         39.15535        40.55267        -1.05151
O         35.14812        36.62417        -2.31652
H         35.82671        37.34290        -2.22236
O         31.55040        38.92858         0.83856
H         31.31859        39.63588         1.47532
O         40.52729        44.24389        -0.66617
H         40.98421        43.92673        -1.47562
O         32.08107        38.89735        -2.72183
H         32.25932        38.17290        -3.35716
O         43.00397        31.14144        -0.65741
H         42.33911        31.62289        -1.19289
O         48.74438        30.47033        -1.16261
H         49.45793        29.86763        -1.46676
O         44.52067        43.73507         1.32463
H         43.76841        43.66288         1.95146
O         37.85636        41.64272        -0.58495
H         37.57327        42.50290        -0.96060
O         37.90241        37.61901        -1.13035
H         38.53942        36.97208        -1.53067
O         41.94163        39.60851         2.27077
H         41.16430        39.24797         2.75930
O         42.54053        35.92200        -1.32559
H         43.34002        36.25790        -1.80276
O         41.20112        44.26667         2.93967
H         40.78898        43.45274         3.31935
O         49.93669        32.55402        -1.99676
H         50.67400        31.99508        -2.33054
O         52.39558        31.22638         1.51472
H         53.27032        30.78967         1.54929
O         52.00196        34.25678         0.50439
H         52.72013        34.90804         0.36694
O         37.57861        40.37956         2.83755
H         37.95118        39.56225         3.24517
O         45.09046        44.50254        -2.21854
H         44.57552        45.27515        -2.55412
O         47.74205        38.31778        -3.03475
H         47.90892        37.51353        -3.57542
O         43.36543        37.34909         1.97077
H         43.17604        38.24244         2.36007
O         30.66337        33.62287         0.46728
H         29.90943        34.23232         0.32076
O         45.01722        37.11223        -2.02989
H         44.97033        37.98672        -2.47456
O         44.42049        42.05045        -2.95811
H         45.06994        42.77619        -3.15826
O         38.14517        35.77570         2.07717
H         37.30484        35.86036         2.57416
O         44.12343        31.41177         2.81290
H         44.98689        31.14077         3.20898
O         41.68300        35.35038         2.21908
H         42.35253        36.03889         2.46512
