         618
 CSIRO Nanostructure Databank - Neutral Graphene Oxide Data Set
C         23.44512        69.81055        -2.60663
C         23.50604        71.17123        -2.99957
C         22.34408        71.87430        -3.41926
C         23.62186        73.91886        -3.68421
C         22.41553        73.22253        -3.76532
C         25.60194        65.66454        -1.01567
C         25.67551        67.04221        -1.36557
C         24.54828        67.74286        -1.80864
C         25.86154        69.79467        -2.23833
C         24.60051        69.11934        -2.20378
C         25.94113        71.16777        -2.56812
C         24.75513        71.86493        -2.94648
C         26.02367        73.96891        -3.10405
C         24.80829        73.26306        -3.26207
C         27.84882        61.40441         0.02228
C         27.84986        62.84002        -0.05082
C         26.70214        63.55150        -0.38532
C         27.98114        65.67522        -0.39596
C         26.73522        64.96240        -0.60086
C         28.08054        67.06082        -0.79667
C         26.97238        67.69397        -1.32776
C         28.38303        69.80850        -1.79062
C         27.07809        69.02988        -1.95527
C         28.32724        71.27405        -1.89907
C         27.17252        71.90272        -2.39900
C         28.36144        74.06268        -2.33274
C         27.18873        73.32964        -2.62076
C         30.28161        57.08613        -0.48363
C         30.23102        58.55913        -0.10805
C         29.06039        59.23909         0.05691
C         30.27135        61.41497         0.34950
C         29.02122        60.68842         0.17382
C         30.23957        62.84499         0.53533
C         29.07526        63.56286         0.24561
C         30.27077        65.77309         0.55490
C         29.08516        64.99727         0.12246
C         30.44460        67.17565         0.14268
C         29.47115        67.68422        -0.90100
C         30.49587        69.95932        -0.53744
C         29.45511        69.18836        -1.00905
C         30.53400        71.39713        -0.79885
C         29.45390        72.03021        -1.48003
C         30.63779        74.19468        -1.38320
C         29.48666        73.45179        -1.73105
C         32.78902        52.81560        -0.05631
C         32.73158        54.18758         0.14115
C         31.56796        54.95343        -0.16787
C         32.77371        57.05436         0.14756
C         31.55896        56.34586        -0.10909
C         32.80099        58.51849         0.00714
C         31.49487        59.31402        -0.13822
C         32.79336        61.48257         0.12672
C         31.47861        60.74266         0.20099
C         32.74030        62.88057         0.69246
C         31.45737        63.49935         1.15421
C         32.76271        65.76978         1.03930
C         31.48012        65.03107         1.06446
C         32.74170        67.21902         1.07503
C         31.52045        67.92244         0.60769
C         32.38296        70.27428         0.90051
C         31.51658        69.37060         0.31683
C         32.70171        71.57742         0.35884
C         31.64857        72.17606        -0.41196
C         32.93056        74.25915        -0.43492
C         31.73859        73.57285        -0.74842
C         35.27677        48.54380        -0.32083
C         35.22491        49.92526        -0.23067
C         34.00580        50.66675        -0.16732
C         35.23673        52.73605         0.39486
C         33.99018        52.04237         0.08266
C         35.16291        54.13802         0.91541
C         33.83155        54.90440         0.89527
C         35.17452        57.08523         0.66461
C         33.96401        56.37309         0.49841
C         35.18917        58.52338         0.57573
C         34.01627        59.23391         0.41494
C         35.20621        61.43299         0.87066
C         33.88826        60.67588         0.86955
C         35.15956        62.88708         0.70164
C         33.93687        63.58566         0.83749
C         35.22559        65.70212         1.15759
C         33.95360        65.04080         1.03084
C         35.24122        67.14090         1.25402
C         33.99287        67.85303         1.26334
C         35.24093        70.02149         1.13586
C         34.16314        69.27238         1.49989
C         35.17447        71.51568         1.05083
C         33.94858        72.20578         0.52590
C         35.31246        74.25454         0.08065
C         34.08224        73.58106         0.06746
C         37.77458        44.26825        -0.26484
C         37.75346        45.64414        -0.38244
C         36.52893        46.39983        -0.44392
C         37.76211        48.48978        -0.13450
C         36.51510        47.79160        -0.34708
C         37.70061        49.93251         0.15855
C         36.50664        50.71993        -0.37193
C         37.73193        52.90299         0.09060
C         36.44374        52.11094         0.22194
C         37.75466        54.20294         0.88607
C         36.43647        54.90555         1.08152
C         37.77990        57.16373         1.01546
C         36.41014        56.41017         1.09726
C         37.77129        58.57198         0.63575
C         36.48170        59.25281         0.28245
C         37.76594        61.42090         0.38705
C         36.50406        60.70241         0.70932
C         37.71555        62.90105         0.33219
C         36.40985        63.62070         0.51627
C         37.68999        65.62944         1.33047
C         36.42646        65.00410         1.00797
C         37.69841        67.20283         1.38948
C         36.44211        67.86162         1.14450
C         37.76389        70.01630         0.85124
C         36.45571        69.27647         0.61881
C         37.76204        71.38313         0.77999
C         36.50605        72.18804         0.84141
C         37.83219        74.27607         0.53796
C         36.60919        73.50376         0.09347
C         40.19704        39.85477        -0.61764
C         39.95193        41.11792         0.08721
C         39.04128        42.04964        -0.35883
C         40.20911        44.25944        -0.83043
C         39.07849        43.52490         0.01443
C         40.22727        45.71496        -0.43572
C         39.01573        46.38817        -0.32760
C         40.24659        48.52226        -0.00803
C         38.98784        47.80972        -0.10270
C         40.26503        49.94149         0.16565
C         39.00820        50.67599         0.34897
C         40.22517        52.82049         0.26016
C         39.02412        52.14310         0.27443
C         40.26972        54.26905         0.38480
C         39.05194        54.96556         0.85596
C         40.20790        57.13169         0.46323
C         39.03774        56.43410         0.82576
C         40.19727        58.55110         0.34807
C         38.96655        59.26467         0.42966
C         40.22681        61.45910         0.13743
C         38.94064        60.72415         0.27040
C         40.21871        62.93782         0.38529
C         38.95520        63.64472         0.62989
C         40.20925        65.71077         1.14621
C         38.96411        64.95906         1.01716
C         40.19757        67.14009         1.24499
C         38.98548        67.88183         1.16496
C         40.27001        69.94749         1.02182
C         39.01196        69.27191         0.97346
C         40.32329        71.38153         0.69162
C         39.02213        72.12983         0.55793
C         40.29011        74.26101         0.91480
C         39.02418        73.61183         0.70452
C         42.83114        36.06970        -2.27048
C         42.77036        37.35660        -1.68987
C         41.53370        38.01005        -1.50320
C         42.72384        40.02788        -0.76027
C         41.45483        39.32146        -0.96545
C         42.76125        41.43031        -0.61396
C         41.74914        42.27761        -1.16109
C         42.67013        44.27753        -0.11583
C         41.56162        43.59223        -0.68561
C         42.68326        45.67309        -0.07247
C         41.46648        46.40530        -0.25311
C         42.75297        48.53802        -0.39418
C         41.45965        47.81263        -0.13105
C         42.72745        49.97884         0.03400
C         41.47735        50.66351         0.15745
C         42.69491        52.79325         0.16405
C         41.48624        52.09896         0.21145
C         42.71774        54.26538        -0.13605
C         41.44809        54.96644         0.27247
C         42.69696        57.07365         0.33321
C         41.47268        56.40901         0.34586
C         42.76348        58.52631         0.12250
C         41.44802        59.27415         0.05868
C         42.70570        61.36539         0.49070
C         41.50582        60.72272         0.29899
C         42.70688        62.79513         0.88729
C         41.44581        63.57522         0.93054
C         42.66614        65.74004         1.25024
C         41.44077        65.05154         1.05005
C         42.65758        67.11180         1.47884
C         41.43460        67.83524         1.37997
C         42.73605        69.97230         1.37578
C         41.45425        69.26274         1.32205
C         42.71541        71.42804         1.28709
C         41.56040        72.12085         1.01784
C         42.74618        74.28407         1.14371
C         41.50611        73.58053         1.03800
C         45.35234        33.48739        -3.22998
C         44.13226        34.11982        -3.05828
C         45.27582        36.03597        -2.01438
C         44.06012        35.40649        -2.45040
C         45.24232        37.31998        -1.41258
C         43.99658        37.99225        -1.25165
C         45.19084        39.96526        -0.32491
C         43.96113        39.31122        -0.74033
C         45.14613        41.27783         0.17277
C         43.87994        42.02390         0.14636
C         45.16682        44.24880         0.35514
C         43.86466        43.53074         0.34737
C         45.20072        45.59452         0.18333
C         43.92086        46.36827         0.44657
C         45.20518        48.46187         0.05315
C         44.00471        47.81000         0.04383
C         45.19458        49.93999        -0.05822
C         43.91918        50.66567         0.14089
C         45.14839        52.80195         0.45306
C         43.93782        52.09882         0.25655
C         45.16719        54.22697         0.52265
C         43.96273        54.96055         0.36288
C         45.16456        57.08359         0.66971
C         43.94890        56.36236         0.46697
C         45.18703        58.53649         0.71419
C         43.99225        59.26622         0.47184
C         45.19778        61.38442         0.88487
C         43.97808        60.66721         0.59303
C         45.23461        62.80613         0.94629
C         43.98185        63.54951         0.76626
C         45.22311        65.66670         1.38611
C         43.95169        65.02871         1.03041
C         45.18730        67.05524         1.92059
C         43.86040        67.83855         2.03189
C         45.24309        69.96136         1.27960
C         43.91774        69.28082         1.54768
C         45.23404        71.44427         1.56104
C         43.93102        72.16853         1.78955
C         45.19916        74.28489         1.32683
C         43.95836        73.62191         1.36288
C         46.54548        34.09586        -2.80136
C         47.72175        35.98877        -1.71323
C         46.52218        35.35954        -2.19306
C         47.70445        37.21457        -1.09647
C         46.46012        37.94064        -0.94864
C         47.65220        39.79349         0.23409
C         46.42245        39.21987        -0.37678
C         47.62237        41.20205         0.76937
C         46.33683        41.96729         0.70386
C         47.70987        44.18131         0.57853
C         46.40022        43.48420         0.67134
C         47.74366        45.57226         0.32147
C         46.49680        46.29163        -0.17302
C         47.68517        48.45043         0.23785
C         46.48919        47.77099         0.14416
C         47.69543        49.88414         0.43099
C         46.45647        50.66821         0.22659
C         47.66553        52.78088         0.80771
C         46.36260        52.02606         0.89123
C         47.66644        54.23025         0.80390
C         46.39669        54.94115         0.71052
C         47.63150        57.10947         0.74565
C         46.37024        56.34636         0.75390
C         47.60121        58.49704         1.27815
C         46.37500        59.25629         1.00000
C         47.67714        61.37973         1.25360
C         46.41870        60.66662         1.06545
C         47.67563        62.80922         1.20985
C         46.44092        63.52453         1.07900
C         47.69947        65.73028         1.00274
C         46.40832        64.97643         1.22887
C         47.74193        67.13140         1.58113
C         46.47116        67.81499         1.92860
C         47.61729        70.03491         2.37296
C         46.43297        69.26822         1.87595
C         47.69179        71.44711         1.80143
C         46.42339        72.13798         1.62012
C         47.65588        74.25676         1.34861
C         46.42668        73.59447         1.48387
C         49.00608        37.74593        -0.53726
C         50.12493        39.86690         0.10071
C         48.96847        39.19577        -0.10532
C         50.19593        41.24093         0.64153
C         48.90179        41.98652         0.94043
C         50.16101        44.14573         0.70106
C         48.91787        43.46361         0.76270
C         50.19186        45.56887         0.52954
C         48.96894        46.26393         0.33443
C         50.25933        48.44894         0.36991
C         48.99484        47.72872        -0.06120
C         50.19135        49.93066         0.70691
C         48.84305        50.59512         0.66378
C         50.13878        52.74682         0.86457
C         48.83544        52.04672         0.77643
C         50.14960        54.24104         0.95246
C         48.86837        54.92918         0.83487
C         50.18429        57.10052         1.10450
C         48.93405        56.39023         0.70873
C         50.16752        58.44151         1.39599
C         48.89779        59.20563         1.53125
C         50.15545        61.37360         1.51739
C         48.90777        60.67906         1.42645
C         50.14649        62.78235         1.49471
C         48.92633        63.53517         1.32844
C         50.23047        65.70145         1.08496
C         48.94760        64.93679         1.29241
C         50.20160        67.13667         1.57993
C         48.92439        67.80355         1.75442
C         50.21890        69.97865         2.10232
C         48.93040        69.22043         2.24099
C         50.17467        71.47625         1.99733
C         48.87434        72.14918         1.75449
C         50.09073        74.22684         1.07871
C         48.89068        73.56320         1.39898
C         51.40360        42.04415         0.42110
C         52.74008        44.09257         0.68693
C         51.40330        43.39347         0.62042
C         52.67826        45.59948         0.69064
C         51.44922        46.28858         0.51208
C         52.77804        48.40826         0.56833
C         51.47256        47.73588         0.43696
C         52.86423        49.72780         0.11174
C         51.08145        50.81446        -0.14793
C         52.51524        52.88564        -0.29153
C         51.26720        52.11915         0.14756
C         52.59243        54.29186         0.30986
C         51.40774        54.98362         0.68607
C         52.68161        57.04438         1.12757
C         51.42696        56.35486         0.98791
C         52.67716        58.41291         1.45281
C         51.41377        59.12962         1.88053
C         52.63112        61.28585         1.71496
C         51.42681        60.63739         1.64773
C         52.70321        62.75936         1.85547
C         51.39007        63.52573         1.76482
C         52.67549        65.61631         1.60392
C         51.47084        64.96821         1.52240
C         52.71750        67.09575         1.86862
C         51.40260        67.81035         1.68551
C         52.63284        69.90730         1.39971
C         51.45260        69.24944         1.71645
C         52.57226        71.35118         1.08623
C         51.41567        72.17795         1.53864
C         52.52485        74.21797         0.65981
C         51.34767        73.57502         1.03460
C         53.88898        46.26305         0.87081
C         55.31660        48.24074         0.82881
C         54.01364        47.68619         0.86365
C         55.60047        49.65366         0.84283
C         53.70147        50.77988         0.57581
C         55.07998        52.71840        -0.01974
C         53.74506        52.09417         0.14625
C         55.12466        54.26376        -0.03196
C         53.83194        54.93864         0.44697
C         55.17414        56.93270         1.05842
C         53.89356        56.27810         0.92823
C         55.21931        58.33542         1.56174
C         53.93816        59.08408         1.79883
C         55.09183        61.29916         1.25364
C         53.95625        60.60467         2.01300
C         55.15306        62.78403         1.29334
C         53.95439        63.49542         1.56602
C         55.14847        65.62905         1.26792
C         53.93878        64.90428         1.54670
C         55.12813        67.05855         1.13022
C         53.91366        67.80154         1.28045
C         55.09353        69.93460         0.89270
C         53.86911        69.19261         1.13361
C         55.09030        71.32941         0.84904
C         53.83389        72.08293         0.73556
C         54.97881        74.25625         0.45100
C         53.80943        73.57044         0.66979
C         56.54508        50.43833         0.22916
C         57.62446        52.72926         0.12368
C         56.37992        51.92437         0.03158
C         57.62563        54.08535         0.38031
C         56.32096        54.73289         0.82305
C         57.57500        56.96710         0.49566
C         56.35173        56.23808         0.85453
C         57.59514        58.45396         0.68060
C         56.52752        59.12319         1.51998
C         57.63157        61.32017         0.86541
C         56.37013        60.55873         1.02316
C         57.61361        62.73492         0.86468
C         56.36450        63.46559         1.06978
C         57.58932        65.61830         0.85449
C         56.37428        64.90771         1.06935
C         57.57797        67.04586         0.77926
C         56.34194        67.76448         0.87018
C         57.56619        69.88127         0.64707
C         56.34354        69.19414         0.80481
C         57.61640        71.35199         0.79164
C         56.33501        72.09609         0.95103
C         57.46981        74.18534        -0.01005
C         56.29478        73.61425         0.64040
C         58.83159        54.84336         0.30546
C         60.03633        57.00427         0.24094
C         58.86006        56.25167         0.34938
C         60.06266        58.43916         0.32975
C         58.87573        59.17181         0.61726
C         60.06737        61.30067         0.46943
C         58.85624        60.59047         0.69621
C         60.06337        62.72881         0.48790
C         58.83520        63.44913         0.69779
C         60.04573        65.58645         0.55119
C         58.84879        64.90010         0.69425
C         60.12894        67.08375         0.68414
C         58.78878        67.77397         0.58480
C         60.09960        69.90155         0.27810
C         58.77824        69.16569         0.47424
C         59.92773        71.29373        -0.28922
C         58.83623        72.10384         0.26114
C         59.67509        74.03506        -1.05364
C         58.64780        73.48738        -0.23461
C         61.26081        59.15929         0.15087
C         62.44733        61.29480        -0.13315
C         61.27443        60.57538         0.19013
C         62.44409        62.70275        -0.15328
C         61.27196        63.41245         0.23918
C         62.32243        65.54866        -0.51339
C         61.37774        64.88992         0.47561
C         62.20025        66.90041        -0.82576
C         61.13245        67.70285        -0.27588
C         62.02263        69.69249        -1.40026
C         61.07936        69.05921        -0.50966
C         61.95113        71.07487        -1.64285
C         60.86772        71.86469        -1.12795
C         61.76540        73.87582        -2.31060
C         60.77635        73.28294        -1.49165
C         63.55263        63.42287        -0.69764
C         64.40932        65.42137        -1.83591
C         63.44432        64.78838        -1.00365
C         64.27183        66.75525        -2.23345
C         63.15605        67.53273        -1.70875
C         63.83390        69.45283        -3.16348
C         63.03271        68.87935        -2.02152
C         64.10088        70.92964        -3.01309
C         63.05635        71.76347        -2.33693
C         63.82540        73.71655        -3.66144
C         62.89595        73.16546        -2.77544
C         65.23171        67.36895        -3.08315
C         66.02898        69.34105        -4.33579
C         65.10074        68.70276        -3.51056
C         65.91956        70.73507        -4.68994
C         64.95394        71.54835        -4.04152
C         65.75168        73.51067        -5.23380
C         64.85810        72.93898        -4.28964
C         66.80342        71.34846        -5.60651
C         66.70407        72.71864        -5.87137
O         42.15389        58.88806        -1.17589
O         40.31448        62.41497        -0.98548
O         48.07980        58.65973         2.65649
O         45.91450        67.15208         3.20597
O         33.05953        69.92046         2.06830
O         57.23163        57.91293        -0.61774
O         32.32185        58.99522        -1.33476
O         41.98564        62.96022         2.16715
O         49.70380        41.44766         2.02084
O         58.64853        71.85223         1.70465
O         49.76669        69.44637         3.41507
O         54.63252        58.38219         2.91102
O         46.17719        42.75455         1.93192
O         37.03430        56.94927         2.29280
O         43.53239        42.63857         1.46242
O         51.99286        50.10384        -0.93382
O         47.50334        40.06826         1.67782
O         52.92153        71.55919        -0.32180
O         56.41032        73.08524         2.01424
O         30.52763        65.60288         2.01689
O         37.70811        66.36176         2.58464
O         38.16050        50.23538         1.50270
O         28.08008        69.08830        -3.04720
O         51.09053        72.10033         2.96494
O         64.35603        71.44231        -1.67766
O         45.98619        50.54828        -1.15119
O         52.00526        63.19156         3.06682
O         48.35159        56.95943        -0.53128
O         38.54857        54.26855         2.08572
O         37.69848        53.24564        -1.29772
O         55.38748        60.72447        -0.05812
O         35.77484        54.29617         2.24763
O         37.00016        63.42511        -0.85530
O         35.86802        72.24326         2.14726
O         54.64020        50.41621         1.54285
O         55.68358        52.19880        -1.28534
O         43.99835        64.48426        -0.36238
O         50.35407        53.39099         2.16048
O         36.02992        61.01501         2.05589
O         39.75603        71.68042        -0.63938
O         36.34461        69.17181        -0.84353
H         36.58581        70.04103        -1.23074
O         41.04952        41.83899        -2.23273
H         40.41252        42.55481        -2.49937
O         60.62905        67.35420         2.04279
H         60.76121        68.34086         2.10853
O         33.18058        61.58972        -1.26462
H         33.03899        60.69846        -1.67390
O         36.72041        50.87631        -1.80135
H         37.12060        51.79483        -1.92879
O         36.47228        59.28556        -1.19051
H         37.26249        59.78360        -1.49474
O         56.04337        54.26037         2.16967
H         56.75371        54.57792         2.76504
O         53.59140        43.65375        -0.38944
H         53.22630        44.00144        -1.22854
O         50.08269        37.50953        -1.45240
H         49.86209        37.93380        -2.30634
O         51.41523        59.01623         3.35351
H         51.24703        58.07760         3.58496
O         43.54906        67.95006         3.45174
H         44.41321        67.91218         3.93190
O         46.15298        51.71868         2.31330
H         46.18182        52.56161         2.81359
O         33.43249        60.56431         2.23684
H         34.23013        60.44570         2.80216
O         39.76975        44.17500        -2.22735
H         40.19079        44.90947        -2.72282
O         40.68374        41.35764         1.22200
H         41.32611        40.63578         1.37545
O         33.33578        54.94926         2.26532
H         34.13342        54.90128         2.84808
O         46.58279        46.21151        -1.63802
H         47.36752        46.75641        -1.90118
O         47.68477        65.95592        -0.47884
H         47.31774        65.14656        -0.89786
O         43.77262        72.18970         3.25508
H         44.60646        72.53564         3.63945
O         54.23058        60.85905         3.40824
H         53.47710        60.50708         3.93048
O         39.33639        43.71539         1.40700
H         39.94682        43.00706         1.71243
O         55.31893        54.71395        -1.37677
H         55.55517        53.92216        -1.91800
O         52.50792        53.03708        -1.72907
H         52.59398        52.14227        -2.12201
O         50.38291        65.81600        -0.38007
H         49.48666        66.04832        -0.73735
O         49.02778        47.71281        -1.55317
H         49.92658        47.42385        -1.82238
O         42.83551        48.56794        -1.87036
H         43.59961        49.13567        -2.11333
O         52.95763        67.16577         3.32608
H         52.79880        68.09077         3.61297
O         29.14123        56.39264         0.02449
H         29.24213        56.29787         0.99370
O         62.00828        65.02943         1.80003
H         61.73673        65.91638         2.15229
O         60.68706        70.06225         1.61922
H         60.10199        70.71103         2.08898
O         31.36287        63.18781         2.58291
H         30.80261        63.89499         2.98051
O         57.06654        59.18763         2.85653
H         56.29421        59.19856         3.47273
O         42.79958        54.35299        -1.60628
H         42.75656        55.30339        -1.84696
O         29.99589        67.19315        -2.18686
H         29.45515        67.63743        -2.88507
O         47.38534        70.23688         3.80439
H         48.26515        70.14278         4.24616
O         36.83607        73.10329        -1.31017
H         37.15619        73.88858        -1.80218
O         50.73582        50.08140         2.05522
H         50.10609        49.67237         2.68532
O         45.41380        69.85092        -0.20157
H         44.64273        70.29262        -0.61919
O         43.79186        46.39598         1.91145
H         43.71475        45.46856         2.22553
O         62.96313        69.35596        -4.34267
H         62.84174        68.40447        -4.54594
H         23.66031        74.98796        -3.93758
H         26.04895        75.04991        -3.30797
H         28.37958        75.14482        -2.53012
H         30.67772        75.26983        -1.61115
H         33.02322        75.32161        -0.70586
H         35.33208        75.30330        -0.25860
H         37.78462        75.37282         0.62259
H         40.30090        75.36134         0.95352
H         42.74784        75.37658         1.00508
H         45.22463        75.36181         1.09914
H         47.66292        75.33946         1.15244
H         50.04025        75.28856         0.79347
H         52.48815        75.28697         0.40071
H         54.95172        75.33797         0.24993
H         57.33863        75.15445        -0.51594
H         59.58573        75.08430        -1.37234
H         61.64160        74.92944        -2.60399
H         63.71919        74.77253        -3.95353
H         65.68956        74.58561        -5.45558
H         22.47815        69.28662        -2.62444
H         21.38294        71.34263        -3.46601
H         21.50709        73.74809        -4.09171
H         24.64229        65.13738        -1.12112
H         23.57884        67.22451        -1.84601
H         26.90009        60.87176        -0.14258
H         25.75893        63.01210        -0.55862
H         30.19778        57.04775        -1.60774
H         28.10706        58.68995         0.01793
H         31.89421        52.30178        -0.44340
H         30.65890        54.43099        -0.50371
H         34.33545        47.97137        -0.32800
H         33.05075        50.13788        -0.31385
H         36.82410        43.71815        -0.18084
H         35.57648        45.85270        -0.51590
H         39.31174        39.31627        -0.99307
H         38.49026        41.79560        -1.27667
H         41.90055        35.58510        -2.60154
H         40.60423        37.47428        -1.74745
H         45.39217        32.49564        -3.70200
H         43.20398        33.63413        -3.39183
H         47.50490        33.57641        -2.93647
H         48.68009        35.46075        -1.82961
H         49.24448        37.14244         0.38330
H         51.07440        39.37604        -0.16671
H         52.35285        41.52965         0.20723
H         53.24894        43.75974         1.63175
H         54.79921        45.65821         0.99761
H         56.15518        47.53652         0.71218
H         57.40414        49.98485        -0.28777
H         58.57557        52.22575        -0.11327
H         59.77295        54.30229         0.12144
H         60.99103        56.47896         0.08828
H         62.19335        58.62026        -0.07185
H         63.35777        60.74825        -0.41937
H         64.43165        62.85954        -1.04408
H         65.26509        64.83335        -2.19987
H         66.11673        66.78915        -3.38701
H         66.89337        68.77261        -4.71284
H         67.57633        70.74561        -6.10412
H         67.39517        73.17918        -6.59146
