         300
 CSIRO Nanostructure Databank - Neutral Graphene Oxide Data Set
C         30.90712        32.38968        -2.13069
C         30.80751        33.38206        -1.34810
C         30.28485        36.13991         0.65946
C         30.34694        37.25586         1.19172
C         30.46940        40.41133         1.98480
C         30.37401        41.60636         1.70923
C         33.17016        29.40782        -2.07526
C         32.22238        30.12272        -2.38865
C         32.59722        31.59960        -0.42161
C         31.65954        31.23734        -1.62388
C         32.57023        33.01147         0.15716
C         31.48928        33.96434        -0.29138
C         32.64017        35.89444         0.93941
C         31.47780        35.44629        -0.03172
C         32.75456        37.44493         1.03875
C         31.48253        38.19952         1.30625
C         32.87487        40.31564         1.79928
C         31.58514        39.43459         2.16917
C         32.76860        41.75802         1.36362
C         31.37485        42.36665         0.89992
C         32.63130        44.43515         0.65071
C         31.60648        43.84775         1.00341
C         35.67114        27.47043        -1.30515
C         35.30932        28.70731        -0.85069
C         33.93030        29.30031        -0.79841
C         35.12562        31.41696         0.31377
C         33.86161        30.76837        -0.18955
C         35.19460        32.86120         0.88312
C         33.85598        33.63358         0.72291
C         35.20638        35.86402         0.54374
C         33.90894        35.14011         0.56949
C         35.19121        37.37580         0.62207
C         34.08918        38.07099         1.37152
C         35.41505        40.29095         1.07008
C         34.18986        39.56029         1.59868
C         35.35887        41.78994         0.94631
C         34.04029        42.51398         0.95741
C         35.15761        44.68042         0.14801
C         33.91667        43.83228         0.13777
C         35.39426        45.91586        -0.39397
C         37.97666        27.22203        -0.97327
C         36.66760        26.66554        -1.36618
C         37.82240        28.58694        -0.20061
C         36.44469        29.22966         0.09887
C         37.67086        31.46891         0.47861
C         36.45245        30.77638        -0.13921
C         37.64886        32.95887         0.51253
C         36.47237        33.64362         0.52421
C         37.73655        36.04517         0.74440
C         36.43943        35.09769         1.02275
C         37.63511        37.28252        -0.19255
C         36.41331        38.13878         0.25204
C         37.61121        40.21107        -0.27032
C         36.49099        39.60138         0.56619
C         37.63779        41.74354        -0.28118
C         36.45417        42.51355         0.19469
C         37.61529        44.67209        -0.60940
C         36.56898        44.03695         0.39075
C         37.70345        46.21368        -0.43572
C         36.33222        46.78628        -0.55308
C         40.56328        26.91965        -3.73165
C         39.58276        26.74357        -2.94099
C         40.52978        27.40415        -0.82102
C         39.25015        27.03857        -1.63024
C         40.31597        28.70823        -0.12030
C         39.06028        29.47632        -0.37182
C         40.29318        31.48818         0.55141
C         38.98871        30.75875         0.44220
C         40.23720        32.96583         0.22751
C         38.96604        33.65682         0.83872
C         40.20458        35.85604         0.91956
C         38.95553        35.13085         0.33753
C         40.34187        37.22359         0.18642
C         39.02373        38.03643        -0.07725
C         40.23055        40.31799         0.30717
C         38.99553        39.53353        -0.03292
C         40.19641        41.84665         0.05090
C         38.94371        42.42217        -0.68712
C         40.26714        44.64719        -0.60362
C         38.94508        43.96198        -0.44835
C         40.44233        46.17024        -0.68442
C         39.03286        46.93000        -0.68608
C         40.30681        48.70751        -1.80562
C         39.24794        48.22479        -1.30845
C         43.13840        27.55915        -3.71741
C         41.90392        27.02889        -3.14897
C         42.96438        28.22561        -1.00965
C         41.84199        27.46020        -1.65527
C         42.79065        28.76557         0.24642
C         41.41059        29.22350         0.76952
C         42.77042        31.47546         0.66984
C         41.44515        30.77863         0.68324
C         42.79481        32.97114         0.63082
C         41.51869        33.74213         0.57192
C         42.73593        35.89495         1.29603
C         41.52073        35.08804         0.76749
C         42.86319        37.31825         0.62719
C         41.50074        38.05030         0.83213
C         42.85597        40.17214        -0.03956
C         41.52554        39.55932         0.45843
C         42.71721        41.71766         0.01494
C         41.48334        42.23651        -0.76739
C         42.74782        44.49654        -0.96605
C         41.43413        43.78270        -1.20280
C         42.81090        45.83031        -1.65359
C         41.53070        46.65498        -1.65016
C         42.90991        48.53409        -2.20075
C         41.58069        48.14880        -1.92683
C         44.13708        28.00470        -3.13537
C         45.20587        26.97883         0.76677
C         44.26172        28.50501        -1.74924
C         45.22212        28.42556         1.18248
C         43.94739        29.24461         1.05799
C         45.28404        31.48064         1.33491
C         43.96940        30.75063         1.22946
C         45.33735        32.89392         0.90472
C         44.05979        33.65297         1.05648
C         45.28306        35.86287         0.73740
C         44.06135        35.13394         1.20892
C         45.33553        37.36604         0.71053
C         44.07422        38.14141         1.18334
C         45.07812        40.48702         1.00534
C         44.02242        39.63540         0.77575
C         45.21546        41.86391         0.50708
C         43.91529        42.60439         0.29351
C         44.92361        44.90753        -0.06413
C         43.81664        44.00285        -0.26670
C         45.19741        46.03921        -0.83057
C         44.25110        46.42255        -1.94805
C         43.98234        47.90935        -2.07685
C         47.52140        27.18049         0.58576
C         46.46657        26.44122         0.62207
C         47.82400        28.49202         0.77370
C         46.58220        29.18363         1.27406
C         47.81112        31.46123         0.95854
C         46.59764        30.70082         1.33625
C         47.79526        32.83252         0.82976
C         46.53744        33.55926         0.79852
C         47.79892        35.78741         0.55902
C         46.51535        35.02055         0.47534
C         47.72491        37.18295         0.01817
C         46.45086        37.93211         0.16487
C         47.69103        40.08969        -0.46223
C         46.49309        39.20312        -0.62447
C         47.49231        41.57691        -0.77484
C         46.51223        42.35550         0.20093
C         47.88722        44.46480        -0.14303
C         46.75850        43.76326         0.29332
C         47.60883        45.85106        -0.31357
C         46.55826        46.41683        -0.70022
C         50.40961        28.71116         1.02152
C         49.09539        29.22212         0.59568
C         50.29837        31.42909         1.40126
C         49.09919        30.72470         0.78695
C         50.23760        32.94793         1.40231
C         49.11703        33.54896         0.47248
C         50.38879        35.84510         0.51756
C         49.09594        35.07462         0.70675
C         50.32216        37.32335         0.21979
C         48.99458        37.98684        -0.13033
C         50.15239        40.27398        -0.24702
C         48.88984        39.48275        -0.21569
C         50.13238        41.48592        -1.15794
C         48.86820        42.38213        -1.13994
C         50.34134        44.27326        -1.00279
C         49.15048        43.67490        -0.27978
C         51.48322        29.28847         1.24183
C         52.72927        31.60655         1.66836
C         51.60235        30.67278         1.72590
C         52.70124        32.83809         1.50909
C         51.78258        33.74427         0.78339
C         52.73922        36.17643         0.79422
C         51.64944        35.21484         1.21484
C         52.68175        37.40239         0.69630
C         51.43312        38.23724         0.81711
C         52.58065        40.28376        -0.45212
C         51.44288        39.64069         0.23298
C         52.57977        41.40964        -0.96787
C         51.47376        42.16025        -1.56301
C         51.27050        43.60247        -1.46416
O         32.83740        33.10153         1.59207
O         38.06469        27.36941         0.48334
O         50.63336        30.94397         2.75902
O         50.71513        41.38473        -2.49730
O         42.89729        42.29696         1.32637
O         43.58016        29.88629         2.32287
O         38.45102        46.80514         0.62429
O         40.87688        40.18604         1.59683
O         34.26998        30.63194         1.19906
O         46.00649        31.21844         2.56812
O         45.64866        35.36696        -0.62168
O         45.93640        28.61222         2.44418
O         49.24777        30.12363        -0.54001
O         39.69562        44.41808         0.70220
O         45.78001        44.53701         0.98586
O         32.88185        41.40649         2.76619
O         41.19431        43.80660        -2.58066
O         44.14629        34.27010         2.39633
O         45.16175        29.15906        -1.26901
O         46.76485        41.65940        -2.00075
O         49.39278        33.28851        -0.85442
O         42.21710        26.10325        -2.07859
O         48.39080        35.58814         1.88416
O         34.40553        38.58106         2.68257
O         31.34717        30.86022        -0.27539
O         37.29182        39.81816        -1.60143
O         38.18553        30.75952         1.65336
O         32.11445        38.27926        -0.00261
O         50.70223        36.35935        -0.79822
O         40.02846        32.98627        -1.26009
O         43.08252        32.17245        -0.59132
O         35.31262        37.95271        -0.70921
O         50.71964        40.57987         1.07685
O         41.91482        45.87791        -2.80813
O         36.40438        34.95494         2.39761
O         48.35743        37.34909        -1.28216
O         39.27613        38.79491        -1.28915
O         34.56672        35.43184        -0.69694
O         34.94682        42.59714         2.09631
O         36.53805        42.14907        -1.19744
O         40.76109        26.36912         0.14972
H         41.14934        25.59926        -0.32396
O         41.02929        46.56192         0.56943
H         40.45880        46.19505         1.28616
O         43.22108        37.14077        -0.74717
H         42.46650        36.70429        -1.22083
O         33.18119        28.46380         0.07995
H         33.44023        28.69303         1.00074
O         51.88546        33.57706        -0.57141
H         50.96974        33.56463        -1.00730
O         32.36413        35.47076         2.27666
H         31.48451        35.80539         2.55649
O         44.07576        38.08909         2.62149
H         44.79852        38.67424         2.93861
O         42.50746        36.07527         2.70055
H         42.82212        35.25817         3.15565
O         43.05656        39.78746        -1.40500
H         43.40995        38.86346        -1.42580
O         45.65160        39.38290        -1.50025
H         46.06985        40.94965        -2.03041
O         31.73319        39.00945         3.50235
H         31.96635        39.79030         4.05002
O         35.34082        32.67766         2.29947
H         34.49133        32.32718         2.64948
O         33.69958        43.44473        -1.21642
H         33.66726        44.24014        -1.78798
O         46.11851        40.05464         1.80422
H         46.73378        40.80110         1.96548
O         50.02746        33.38961         2.69155
H         50.25343        32.65736         3.31630
O         39.07919        33.56006         2.25661
H         38.23211        33.88814         2.64809
O         51.52417        35.33263         2.61119
H         52.24399        34.82639         3.04179
O         36.10013        28.90007         1.43179
H         36.63396        28.12550         1.71778
O         37.16558        44.53841        -1.95848
H         37.11620        43.57302        -2.18116
O         39.01122        42.20753        -2.10185
H         38.55674        41.35231        -2.30675
O         38.98225        35.00837        -1.06565
H         38.68057        35.82772        -1.52963
O         41.26929        38.06440         2.24923
H         42.11114        38.30291         2.70486
O         40.00029        35.87780         2.32093
H         40.50643        36.62968         2.72260
O         48.69534        42.91454        -2.44096
H         48.65090        42.18238        -3.09060
O         36.48545        30.97533        -1.56585
H         37.37019        30.68259        -1.91361
O         40.75071        36.82908        -1.14349
H         40.52152        37.57102        -1.75649
O         44.72226        45.88073        -3.15360
H         44.01333        45.93702        -3.82965
O         37.91062        36.74793         1.96964
H         37.58183        36.14194         2.69418
O         37.43487        37.00073        -1.56953
H         37.29171        37.89129        -1.99394
O         31.20918        42.04723        -0.45440
H         30.34594        42.38099        -0.77304
O         36.98499        44.34196         1.70643
H         36.36910        43.90278         2.33973
O         39.00552        29.87369        -1.79019
H         39.69619        30.57897        -1.94998
O         40.15173        42.37008         1.37087
H         40.96397        42.09593         1.85427
O         41.44032        41.47833        -1.96383
H         41.17299        42.10380        -2.69130
O         51.10950        38.33620         2.19647
H         51.65697        39.03607         2.60900
O         31.61132        36.02493        -1.29893
H         31.66548        37.00951        -1.20177
O         44.06458        26.27396         0.65903
H         43.30996        26.71302         1.10276
O         41.17480        28.80696         2.11551
H         41.84767        29.23140         2.69711
O         49.56113        43.26887         1.01965
H         49.76757        44.06104         1.55797
O         40.78422        31.92401        -1.90109
H         41.73966        32.15998        -1.70998
