         252
 CSIRO Nanostructure Databank - Neutral Graphene Oxide Data Set
C         30.38729        31.88783         1.21314
C         30.46551        33.07058         0.78965
C         30.41257        36.14323        -0.12515
C         30.35535        37.27290        -0.61725
C         30.36884        40.52060        -0.64544
C         30.35819        41.75313        -0.58144
C         32.87034        29.20295         2.18648
C         31.81657        29.85551         2.07647
C         32.78758        31.78207         1.11023
C         31.58923        31.13360         1.46452
C         32.77851        33.06518         0.25658
C         31.51127        33.92148         0.41296
C         32.76479        35.93848        -0.26980
C         31.53894        35.25659         0.02245
C         32.82382        37.29921        -0.97882
C         31.47263        38.12470        -1.03181
C         32.76604        40.38293        -0.86849
C         31.46924        39.61079        -0.95931
C         32.77110        41.82770        -0.96240
C         31.41722        42.62470        -1.20690
C         32.77480        44.47965        -0.67744
C         31.60275        44.03871        -0.66137
C         35.70183        27.67354         2.29221
C         35.47372        29.01812         1.90875
C         34.21722        29.76230         2.08314
C         35.34289        31.72579         0.82787
C         34.09901        31.17248         1.44451
C         35.30392        33.18759         0.48815
C         34.01981        33.92880         0.40980
C         35.25302        36.09531         0.15799
C         33.99491        35.27882         0.06421
C         35.27991        37.48815        -0.37319
C         33.92379        38.18261        -0.30094
C         35.20924        40.30924        -1.00776
C         33.92509        39.63124        -0.75206
C         35.24655        41.76068        -0.65772
C         33.98591        42.53438        -0.80437
C         35.35927        44.72004        -0.85547
C         34.08172        43.95187        -0.65773
C         35.63464        45.95704        -0.03125
C         38.06538        27.54163         1.87844
C         36.79943        27.07567         2.33121
C         37.93191        28.92225         1.37014
C         36.66289        29.63581         1.42700
C         37.81854        31.67823         0.65994
C         36.64836        31.02978         1.04657
C         37.86900        33.16497         0.57539
C         36.58464        33.93172         0.64221
C         37.88066        36.07744         0.12992
C         36.56167        35.40993         0.42422
C         37.80419        37.49481        -0.39358
C         36.46455        38.11704        -0.63258
C         37.76966        40.28248        -0.91729
C         36.49069        39.54377        -1.05024
C         37.80804        41.63802        -0.78035
C         36.57689        42.43887        -0.55192
C         37.87541        44.53834        -0.68310
C         36.66263        43.90463        -0.69460
C         37.89941        46.08806        -0.92812
C         36.71270        46.57219        -0.06060
C         40.79244        25.21313         2.91362
C         39.67969        25.71351         2.62135
C         40.50283        27.39288         1.14799
C         39.28058        26.87459         1.93587
C         40.39993        28.89625         0.98828
C         39.07898        29.57403         0.89960
C         40.17077        31.62193        -0.04005
C         39.05050        30.95974         0.52424
C         40.17492        33.03652        -0.28767
C         39.06624        33.84113         0.02241
C         40.19213        35.91611        -0.77903
C         39.07850        35.26378        -0.23075
C         40.20497        37.34208        -1.03002
C         39.02397        38.06370        -1.00195
C         40.17703        40.07734        -0.30065
C         39.06334        39.56005        -1.24308
C         40.20482        41.58927        -0.30299
C         39.08243        42.33598        -0.59305
C         40.27443        44.42798        -0.05106
C         39.10795        43.78522        -0.48093
C         40.21318        45.88488         0.25933
C         39.29963        46.71224        -0.67226
C         40.33951        48.67706         0.44582
C         39.38406        48.10833        -0.09657
C         43.36970        25.56886         2.88241
C         42.03373        25.85311         2.55158
C         43.02524        27.69934         1.19407
C         41.88875        26.99193         1.67688
C         42.86827        28.77576         0.11848
C         41.58291        29.54036         0.35795
C         42.53664        31.44042        -1.04074
C         41.35312        30.79687        -0.40320
C         42.29197        32.83632        -1.43555
C         41.31427        33.65123        -0.95902
C         42.69473        35.84260        -0.75987
C         41.39452        35.14323        -1.30617
C         42.86123        37.27255        -1.32059
C         41.50121        38.11702        -1.41103
C         42.67303        40.07028        -0.23189
C         41.52731        39.43300        -0.59715
C         42.65160        41.39925         0.44855
C         41.34954        42.22095         0.33972
C         42.55928        44.27447         0.94740
C         41.40901        43.68121         0.40988
C         42.71745        45.78434         0.88014
C         41.34147        46.48545         1.02089
C         42.79775        48.51961         1.29951
C         41.34927        48.33675         1.44554
C         44.34118        26.23939         2.42502
C         45.54397        28.02317         0.97094
C         44.34702        27.30774         1.52461
C         45.17392        28.79449        -0.36240
C         44.03151        29.72702        -0.12558
C         45.17685        31.54634        -1.45299
C         43.92185        30.91306        -0.78140
C         45.30365        33.04720        -1.21605
C         44.22427        33.87305        -1.52586
C         45.24253        35.82150        -0.62339
C         44.05223        35.16474        -1.00462
C         45.17776        37.25158        -0.33793
C         44.02242        37.95279        -0.56923
C         45.22097        40.14375         0.10473
C         44.00465        39.43134        -0.41473
C         45.15901        41.53329         0.62911
C         43.87429        42.17038         0.71353
C         44.95262        44.26036         1.53794
C         43.73984        43.50004         1.15144
C         44.69283        45.44317         2.52501
C         43.75988        46.37365         1.81029
C         43.71393        47.76365         1.79111
C         47.45960        27.37201        -0.38804
C         46.69422        27.15340         0.54690
C         47.65630        28.57568        -1.26125
C         46.40657        29.43992        -0.95245
C         47.74805        31.52307        -1.11600
C         46.46047        30.79500        -1.11286
C         47.72819        32.94881        -0.90746
C         46.51692        33.69830        -0.85406
C         47.71080        35.87886        -0.44094
C         46.48544        35.13036        -0.65465
C         47.70169        37.19063        -0.02015
C         46.41030        37.87584         0.22293
C         47.67143        40.09723         0.77483
C         46.41431        39.34505         0.52653
C         47.62064        41.44771         1.03630
C         46.34959        42.16581         0.98324
C         47.50582        44.23481         1.94123
C         46.29705        43.59304         1.36546
C         47.11832        45.46651         2.46320
C         46.05817        46.03700         2.83249
C         50.13570        28.85187        -1.77990
C         48.96236        29.28420        -0.90689
C         50.28138        31.50573        -0.88119
C         48.95404        30.81549        -1.07614
C         50.27441        32.99563        -1.23163
C         48.98232        33.72254        -1.02313
C         50.28956        35.88861        -0.43753
C         49.00032        35.13425        -0.51766
C         50.17477        37.43548        -0.55379
C         48.98112        37.91596         0.28671
C         50.20826        40.16010         0.79954
C         48.95159        39.34842         0.77003
C         50.17570        41.47845         1.31786
C         48.83361        42.12824         1.67712
C         50.07830        44.17721         2.07059
C         48.80006        43.68726         1.43853
C         51.19017        29.49582        -1.99448
C         52.62255        31.63180        -1.48851
C         51.52712        30.80350        -1.63247
C         52.75585        32.80606        -0.97888
C         51.61613        33.75364        -1.15346
C         52.65487        36.04719        -0.21375
C         51.60587        35.19928        -0.79812
C         52.50899        37.20394         0.19615
C         51.54471        38.23957        -0.31858
C         52.52514        40.32904         0.75188
C         51.42835        39.50542         0.47848
C         52.55193        41.49058         1.25405
C         51.39224        42.20690         1.57636
C         51.15113        43.56769         1.96461
O         44.50471        27.81393        -1.26310
O         35.29039        32.14023        -0.58860
O         43.00289        28.04209        -1.15695
O         46.18067        38.36961         1.60380
O         41.72365        41.49843         1.57760
O         41.62734        30.56632        -1.82978
O         35.82203        36.04457         1.51692
O         41.34774        29.67833         1.79327
O         45.72764        44.56327         0.33963
O         49.74318        35.28829         0.76184
O         44.93806        40.10811        -1.34162
O         31.35045        38.89334        -2.23916
O         51.76632        34.77806        -2.16176
O         35.84649        41.99671         0.66740
O         38.09231        37.19046         1.03013
O         35.77885        39.89236        -2.30099
O         49.53261        33.43856        -2.38220
O         37.57925        46.29511        -2.23771
O         49.11962        38.20090         1.70034
O         37.33793        33.67796         1.86923
O         40.24907        45.99826         1.75778
O         34.33776        30.96648         2.88160
O         41.42704        38.52594        -2.75528
O         43.21975        33.34176        -2.34042
O         43.10218        46.09109        -0.48351
H         44.01778        45.76616        -0.62757
O         48.64390        41.98556         3.10231
H         48.68753        41.03374         3.33465
O         47.65193        28.29966        -2.64369
H         46.79571        27.89250        -2.89102
O         42.54490        35.96258         0.66733
H         42.38350        35.07827         1.05613
O         41.40504        35.29315        -2.73362
H         40.57380        34.93003        -3.10026
O         40.36989        26.85542        -0.18803
H         40.51563        25.88642        -0.15689
O         44.11138        44.89367         3.69474
H         43.76620        45.61540         4.26010
O         33.54124        38.19787         1.09998
H         34.32407        38.41985         1.64850
O         45.00926        31.32249        -2.87079
H         44.26915        31.89432        -3.18145
O         49.74280        37.69555        -1.89632
H         50.53725        37.79617        -2.46951
O         32.73032        32.62634        -1.13537
H         33.62923        32.27764        -1.35983
O         49.28498        28.99504         0.43308
H         49.98054        29.62274         0.74267
O         33.21563        37.03644        -2.32709
H         32.81193        37.72588        -2.90418
O         39.30582        39.92117        -2.60167
H         40.12354        39.43129        -2.92555
O         39.97791        46.69539        -1.91032
H         39.26033        46.71513        -2.60030
O         35.25807        45.10222        -2.21677
H         36.06666        45.69113        -2.41611
O         39.78235        39.66891         1.03163
H         40.40305        40.10020         1.66706
O         40.92600        48.48510         2.73671
H         39.95243        48.57708         2.76752
O         48.84199        43.91693         0.03769
H         48.57853        44.84067        -0.15627
O         31.21895        42.70808        -2.58446
H         30.40589        43.21898        -2.77463
O         50.62876        31.39664         0.51865
H         51.54567        31.73479         0.64326
O         52.01396        38.62462        -1.61491
H         52.82914        39.15883        -1.50470
O         46.00633        28.99449         1.90157
H         46.27668        28.54067         2.72668
O         43.38243        37.12302        -2.64759
H         42.80311        37.68617        -3.23292
