         260
 CSIRO Nanostructure Databank - Neutral Graphene Oxide Data Set
C         30.49473        32.63256         1.63199
C         30.67899        33.62562         0.89596
C         30.42316        35.93315        -1.32048
C         30.46775        37.01968        -1.89941
C         30.53570        40.18667        -1.44465
C         30.49773        41.41262        -1.53187
C         32.70286        29.77556         2.57675
C         31.66475        30.50858         2.64159
C         32.84282        31.82467         0.41040
C         31.05314        31.33143         1.70142
C         32.82377        33.10312        -0.08768
C         31.44786        33.67343        -0.44163
C         32.84822        35.66761        -1.48852
C         31.53510        34.97399        -1.19437
C         32.88267        37.07511        -2.05630
C         31.55719        37.97248        -2.25688
C         32.87449        40.02479        -1.75467
C         31.64534        39.18664        -1.31361
C         32.90304        41.50091        -1.41804
C         31.61492        42.32900        -1.93038
C         32.79460        44.21081        -0.85678
C         31.77461        43.66624        -1.27913
C         35.38002        27.95212         2.49156
C         35.20326        29.22885         2.05435
C         34.10047        30.23728         2.26668
C         35.29430        31.90887         0.88179
C         34.05074        31.03037         0.81818
C         35.28780        33.32819         0.38668
C         34.05130        33.90050        -0.23372
C         35.36903        35.86141        -1.10261
C         34.08115        35.12883        -0.85354
C         35.35965        37.37310        -1.24581
C         34.15110        37.86888        -2.03574
C         35.86930        40.47010        -1.63298
C         33.95860        39.33796        -2.15666
C         35.53941        41.63246        -0.98034
C         34.15291        42.20104        -0.90093
C         35.29911        44.44636        -0.00814
C         34.08659        43.66892        -0.43445
C         35.41919        45.90947         0.04599
C         37.63439        27.44381         1.80646
C         36.40298        27.17362         2.31689
C         37.64543        28.82224         1.18910
C         36.41708        29.71146         1.29874
C         37.75878        31.64248         0.35088
C         36.54801        31.15885         1.03973
C         37.79540        33.05174        -0.16772
C         36.65362        34.00689         0.20465
C         37.88796        36.01129        -0.52095
C         36.65006        35.20626        -0.73348
C         37.83179        37.36229        -0.40213
C         36.61231        38.15028        -0.83827
C         38.06322        40.25019        -0.41477
C         37.08265        39.57730        -1.39610
C         38.04017        41.73201        -0.40728
C         36.71698        42.45877        -0.60716
C         37.87876        44.61538        -0.19802
C         36.65955        43.85898        -0.20369
C         37.81516        46.12543        -0.33151
C         36.45976        46.56423         0.01076
C         40.03254        24.53984         1.76448
C         38.99895        25.21809         1.88570
C         40.06700        27.19370         0.91850
C         38.75179        26.57677         1.39759
C         40.28013        28.68229         1.21401
C         38.98883        29.51522         1.14179
C         40.36165        31.57556         0.41505
C         39.04265        30.95163         0.71898
C         40.39863        33.00560         0.00477
C         39.14010        33.71876        -0.40813
C         40.24122        35.76209         0.48597
C         39.22127        35.26516        -0.55625
C         40.21967        37.29186         0.62067
C         38.99978        38.07607         0.20849
C         40.14611        40.22365         1.07220
C         39.07414        39.56405         0.17716
C         40.23366        41.75662         0.89131
C         39.06375        42.51736         0.33538
C         40.42943        44.67285         0.18269
C         39.11010        43.97722         0.04906
C         40.39992        46.18718        -0.12132
C         39.06858        46.92182        -0.25639
C         40.19840        48.72392         0.97668
C         39.22814        48.24780         0.36707
C         42.60457        24.37305         1.41644
C         41.35723        24.92820         1.40570
C         42.65794        27.04717         0.50265
C         41.33214        26.34525         0.81029
C         42.72276        28.56816         0.33648
C         41.45796        29.35491         0.48040
C         42.84969        31.53671         0.45151
C         41.51271        30.85289         0.47499
C         42.93623        33.03085         0.34936
C         41.65960        33.78360         0.18824
C         42.81866        35.93457        -0.09200
C         41.59719        35.14281         0.17879
C         42.70512        37.47827        -0.10132
C         41.53676        38.03383         0.71326
C         42.69648        40.33840         0.37404
C         41.51282        39.51736         0.91043
C         42.69923        41.74921         0.94139
C         41.53535        42.46223         0.96525
C         42.88563        44.54604         1.36093
C         41.46623        43.97898         1.18105
C         43.33299        45.77511         0.98558
C         41.55892        47.02240         0.26174
C         42.85405        48.54291         1.47722
C         41.56976        48.25069         0.90868
C         43.67430        25.02394         1.09175
C         45.21423        26.96043         0.38027
C         43.94433        26.30632         0.74192
C         45.26999        28.48026         0.31221
C         44.03417        29.31097         0.68719
C         45.40726        31.50974         0.30496
C         44.07626        30.74965         0.01045
C         45.46044        33.04658         0.23164
C         44.24689        33.71410         0.13004
C         45.35081        36.02331         0.15535
C         44.13981        35.19259        -0.11069
C         45.25983        37.50646        -0.08859
C         43.99961        38.21558         0.22393
C         45.27138        40.26407         0.75926
C         44.01319        39.56678         0.50231
C         45.25406        41.66970         1.25869
C         43.92591        42.28779         1.58177
C         45.20128        44.38688         2.52754
C         43.90539        43.71835         2.06240
C         45.24557        45.90116         2.48001
C         44.34343        46.56194         1.69555
C         43.94393        47.94888         1.58231
C         46.97911        27.09142        -1.25274
C         46.12473        26.42588        -0.65012
C         47.22444        28.51590        -1.30065
C         46.33275        29.17204        -0.47147
C         47.95176        31.00221        -0.23089
C         46.57125        30.56485        -0.00882
C         48.02059        33.31249         0.25327
C         46.73162        33.82097         0.19296
C         47.89072        36.19539         0.02430
C         46.67350        35.33691         0.25790
C         47.82794        37.55240        -0.00602
C         46.53404        38.28689        -0.03230
C         47.76828        40.31900         0.77749
C         46.49834        39.66235         0.50956
C         47.81410        41.53685         1.60542
C         46.53275        42.31673         1.75977
C         47.85158        44.32090         2.78856
C         46.50540        43.59965         2.58308
C         47.61826        45.76954         2.94709
C         46.51209        46.32374         2.98294
C         48.88776        29.39215        -3.20354
C         48.56345        29.05653        -1.73438
C         50.05378        31.13508        -1.44317
C         48.85892        30.39121        -1.05207
C         50.28546        33.43462        -0.73035
C         49.19580        34.06143        -0.18135
C         50.43805        36.30280        -0.39651
C         49.23555        35.51912         0.18244
C         50.36350        37.79402        -0.37021
C         48.98900        38.45041        -0.38755
C         50.14834        40.63455         0.17638
C         48.97103        39.80416         0.30008
C         50.23593        41.88186         0.76936
C         49.15790        42.30328         1.68988
C         50.22139        44.48866         1.70120
C         49.11550        43.72927         2.26664
C         49.91032        30.05039        -3.48238
C         51.50173        32.14219        -2.97886
C         50.61238        31.06065        -2.72284
C         51.97540        33.16622        -2.44857
C         51.19895        34.15840        -1.66665
C         52.25812        36.63059        -2.00398
C         51.29811        35.63639        -1.49787
C         52.15508        37.86285        -1.98054
C         51.44043        38.69086        -0.99571
C         51.89725        41.31468        -1.35034
C         51.29384        40.14019        -0.71710
C         51.88407        42.48363        -0.95365
C         51.47798        42.84422         0.45605
C         50.95781        44.22605         0.74172
O         43.46429        35.51148        -1.36628
O         52.23408        39.31924         0.03173
O         33.75312        37.12637        -3.22553
O         37.76814        42.31972        -1.68528
O         33.18382        41.52109         0.01082
O         39.05361        26.79647        -0.02433
O         46.03221        42.59357         0.40192
O         46.12720        30.85721         1.37313
O         51.00663        37.06724         0.71512
O         41.86301        38.61218         2.00266
O         39.93531        33.06494        -1.42334
O         50.50608        32.07102        -0.51744
O         45.92874        35.76022         1.47031
O         40.78948        45.20775        -1.12142
O         48.72382        41.37294         2.71794
O         35.46864        38.06923         0.05310
O         45.85768        27.71135         1.42502
O         43.00192        32.31773         1.67076
O         48.81580        43.73235         3.67624
O         36.77365        28.94546         0.04480
O         41.94833        28.92890        -0.84647
O         45.66471        43.73157         3.74898
O         50.39236        35.08511        -2.48661
O         39.23226        37.64076         1.62671
O         36.17978        35.10666        -2.09634
O         37.51559        31.97189        -1.08242
O         42.75829        46.43811        -0.10070
O         45.85240        38.04509        -1.32938
O         31.63468        31.07559         0.40389
O         38.40238        46.72273        -1.51380
O         39.20719        42.33199         1.77175
O         35.06777        33.04624         1.81567
O         48.36456        32.02080         0.59742
O         34.45637        43.77692         0.95735
O         41.86244        26.39759        -0.54173
O         39.01224        30.57753         2.15654
O         43.54895        42.64356         2.96665
O         32.21083        34.74590        -2.45205
O         37.74021        39.36636        -2.59222
O         35.06637        40.01041        -2.65807
O         39.74106        40.07304         2.43791
H         39.78893        39.11363         2.66196
O         31.71346        42.42557        -3.31986
H         30.88680        42.79716        -3.68901
O         42.46818        40.53400        -1.04256
H         42.47081        39.64686        -1.48762
O         43.95798        29.45671         2.10474
H         44.81918        29.81944         2.41940
O         49.53503        28.12810        -1.28334
H         49.23453        27.22091        -1.50760
O         40.69675        28.67108         2.60019
H         40.53267        29.57070         2.96993
O         39.78975        35.57559        -1.83739
H         39.30275        35.08493        -2.53312
O         44.03561        30.58572        -1.41448
H         43.20488        30.10167        -1.65012
O         49.39546        35.44221         1.62534
H         49.98612        36.18563         1.90163
O         34.47347        31.14759         3.28798
H         34.60957        30.65545         4.12339
O         31.50917        38.43991        -3.57454
H         31.69768        37.70133        -4.19046
O         40.84826        44.25042         2.46064
H         41.21712        43.62860         3.12537
O         42.36440        37.83272        -1.47126
H         42.85678        37.21795        -2.06696
O         39.87568        35.20288         1.76086
H         39.19090        35.79144         2.15840
O         34.21279        30.03319        -0.18848
H         33.32881        29.72368        -0.47904
O         30.76380        32.76111        -1.28231
H         30.03124        33.23080        -1.73267
O         52.49755        42.51931         1.34374
H         53.26617        43.10857         1.20547
O         37.04409        34.57284         1.47839
H         36.49840        34.12217         2.17185
O         48.81935        38.71190        -1.81732
H         47.85986        38.79522        -2.01557
O         31.81414        38.72335         0.00952
H         31.93798        39.49888         0.59887
