         300
 CSIRO Nanostructure Databank - Neutral Graphene Oxide Data Set
C         30.27038        31.76892         0.42529
C         30.28304        32.89775        -0.06929
C         30.44317        36.01234        -1.22267
C         30.46308        37.24578        -1.24387
C         30.42139        40.20840        -0.20754
C         30.48356        41.35991         0.32456
C         32.51151        28.86625         0.67869
C         31.48580        29.52573         0.86832
C         32.68398        31.60643         0.46447
C         31.33307        30.97514         1.09679
C         32.67811        33.10426         0.25398
C         31.45490        33.63646        -0.57210
C         32.83832        35.81276        -1.17912
C         31.51476        35.01958        -1.12016
C         32.89055        37.32059        -1.35007
C         31.60451        38.16147        -1.34380
C         32.88887        40.09103        -0.13635
C         31.62932        39.56738        -0.74336
C         32.83137        41.20196         0.92282
C         31.53259        42.13467         0.77115
C         32.88538        44.11489         1.25266
C         31.81836        43.44845         1.14284
C         35.39859        27.22052         0.11425
C         35.04796        28.56368         0.66597
C         33.83105        29.30695         0.05957
C         35.13124        31.56107         0.47905
C         33.86127        30.87779         0.39880
C         35.21652        32.96787         0.32454
C         34.00719        33.63098        -0.27103
C         35.22804        35.86681        -0.28493
C         34.08043        35.03231        -0.78876
C         35.42231        37.24850        -0.85796
C         34.20047        38.18354        -1.25839
C         35.33849        40.08506        -0.03517
C         34.10532        39.42040        -0.31545
C         35.35832        41.46073         0.37826
C         34.14151        42.02981         1.02083
C         35.55507        44.26014         1.32779
C         34.21632        43.51226         1.42471
C         35.57544        45.76253         1.21161
C         37.79916        27.13644         0.36784
C         36.45504        26.58589         0.10213
C         37.72179        28.65497         0.47109
C         36.37669        29.40342         0.27725
C         37.66397        31.52003         1.04931
C         36.30658        30.77345         1.04584
C         37.61410        33.02888         1.06386
C         36.38807        33.69929         0.55193
C         37.64377        35.95169         0.72106
C         36.36283        35.18021         0.46075
C         37.74891        37.38746         0.32027
C         36.66839        37.98770        -0.52536
C         37.81449        40.17280         0.00668
C         36.61390        39.50278        -0.61309
C         37.72569        41.64199        -0.19376
C         36.44529        42.29118         0.09884
C         37.61384        44.60775        -0.24841
C         36.29742        43.81191         0.02067
C         37.63338        46.15605        -0.07109
C         36.47443        46.48301         0.77088
C         40.04122        25.00905        -1.83663
C         39.10371        25.41620        -1.12935
C         40.27646        27.35302        -0.29132
C         39.05769        26.47277        -0.10654
C         40.24065        28.72841         0.24063
C         38.95881        29.48593         0.06860
C         40.27533        31.60555         0.66307
C         38.97969        30.84895         0.75140
C         40.30281        33.02762         1.25371
C         38.93672        33.75913         1.12090
C         40.25157        35.93353         0.72019
C         38.95313        35.19330         0.70172
C         40.15748        37.40838         1.10559
C         39.11989        38.07118         0.17248
C         40.11657        40.41076         0.91145
C         38.95773        39.56146         0.39058
C         40.24916        41.69958         0.10559
C         38.98609        42.41925        -0.26311
C         40.21250        44.70494        -0.08484
C         38.94458        43.92407        -0.34528
C         40.26592        46.12238        -0.67248
C         38.91384        46.89952        -0.32056
C         40.32859        48.89746        -0.20125
C         39.29742        48.26089         0.05599
C         42.38800        25.65532        -3.00466
C         41.08986        25.88961        -2.37419
C         42.46842        27.99653        -1.43737
C         41.23369        27.13036        -1.44473
C         42.73525        28.83326        -0.21476
C         41.52927        29.39225         0.62524
C         42.75600        31.59664         0.96624
C         41.44226        30.91454         0.54436
C         42.76565        33.04645         0.37006
C         41.52429        33.83199         0.77259
C         42.75397        36.03039         0.39489
C         41.54860        35.19248         0.80562
C         42.79272        37.45959         0.92447
C         41.49371        38.16015         1.13815
C         42.72444        40.35131         0.74593
C         41.45878        39.67544         1.03621
C         42.80139        41.84175         0.70093
C         41.51316        42.47097         0.19472
C         42.86098        44.65656         0.11734
C         41.48885        43.97167         0.18742
C         42.77031        46.08607        -0.40924
C         41.61264        46.80771        -0.33978
C         42.87418        48.79844        -0.91847
C         41.72038        48.37528        -0.04854
C         43.36383        26.41314        -3.04670
C         44.98584        28.38481        -2.30177
C         43.63585        27.69623        -2.37693
C         45.18122        29.30034        -1.07310
C         44.05864        29.53610        -0.11220
C         45.36438        31.60405         0.61287
C         44.08274        30.84463         0.63383
C         45.35021        33.10164         0.40693
C         44.04347        33.78247         0.87544
C         45.21981        35.91809         1.45473
C         44.14606        35.31353         0.48734
C         45.25159        37.44545         1.28895
C         43.96421        38.16021         1.01352
C         45.27886        40.40695         0.81994
C         43.96246        39.68272         1.29148
C         45.28283        41.78665         0.06475
C         43.86438        42.26920        -0.35427
C         45.07133        44.31162        -1.21509
C         43.91627        43.76834        -0.50261
C         45.25509        45.83168        -1.12407
C         44.13088        46.71653        -0.66244
C         43.92742        48.14220        -0.94241
C         47.39240        27.96712        -2.07787
C         46.24627        27.56093        -2.33770
C         47.61553        29.40397        -1.68822
C         46.42322        29.84972        -0.83830
C         47.81016        31.56204         0.43584
C         46.60285        30.97946         0.04990
C         47.83868        32.99510         0.91171
C         46.58491        33.82905         0.93769
C         47.84742        36.00325         0.92328
C         46.57345        35.17671         1.17337
C         47.86398        37.39424         1.58623
C         46.54956        38.18903         1.32788
C         47.75946        40.10917         0.09247
C         46.55790        39.62626         0.84894
C         47.66309        41.32337        -0.78726
C         46.24535        41.88349        -1.15711
C         47.51263        43.92903        -2.41637
C         46.21394        43.37825        -1.67603
C         47.35434        45.41413        -2.30127
C         46.45644        46.15128        -1.90677
C         50.35326        28.80957         0.69775
C         49.03395        29.40274         0.69026
C         50.35855        31.53074         0.45362
C         49.04025        30.80051         0.58842
C         50.39574        33.04402         0.38850
C         49.16275        33.73759         0.94198
C         50.42176        36.02193         0.70621
C         49.19925        35.25914         1.30005
C         50.46497        37.50527         1.21314
C         49.12543        38.22562         1.23546
C         50.30302        40.42851         0.36113
C         49.05815        39.62704         0.68115
C         50.18255        41.79193        -0.27632
C         48.92002        42.12021        -1.06116
C         50.01915        44.25741        -1.61071
C         48.83704        43.40333        -1.87599
C         51.45627        29.36406         0.54186
C         52.81966        31.63075         0.52379
C         51.67821        30.78479         0.97920
C         52.77639        32.86590         0.58311
C         51.74204        33.87596         0.21589
C         52.80860        36.16696         0.55340
C         51.75347        35.18488         0.99785
C         52.78650        37.39375         0.46990
C         51.71768        38.31699         0.92634
C         52.69898        40.74258         0.44387
C         51.64393        39.66154         0.22653
C         52.57565        41.82397        -0.19697
C         51.46418        42.55060        -0.64729
C         51.13899        43.71289        -1.34589
O         44.95288        30.93181         1.82491
O         46.21214        40.52741         1.93719
O         51.34421        37.98147         2.27787
O         38.38942        41.90456        -1.50566
O         41.54673        38.97618         2.35075
O         38.10867        33.61710         2.31254
O         50.17590        41.63820         1.16916
O         43.77156        28.30793         0.65466
O         48.50851        30.11198        -2.04889
O         42.62748        31.59734         2.34910
O         38.47811        30.93388         2.12592
O         40.68068        44.54404         1.28411
O         42.49680        36.42416        -1.06585
O         31.56746        33.85064        -1.97412
O         35.22859        35.80947         1.16699
O         38.20644        44.32652        -1.54058
O         31.60160        39.29303        -2.17185
O         48.64855        33.05607         2.13552
O         36.51355        37.30971        -1.80673
O         40.18495        26.35492         0.79798
O         42.63169        28.68387        -2.71671
O         45.10804        43.65979        -2.56940
O         34.40844        38.72630        -2.49148
O         36.58850        39.88641        -2.05715
O         47.76996        39.96365        -1.34889
O         45.19230        46.31525         0.22805
O         49.07713        39.38843         2.11789
O         45.75526        38.07572         2.53843
O         34.27074        33.89672        -1.68129
O         40.55092        27.16310        -2.74298
O         37.85561        27.82306         1.64902
O         32.96086        36.43893        -2.49240
O         41.13689        41.76116        -1.03251
O         49.20887        42.14388        -2.49742
O         50.32203        32.23379        -0.83077
O         37.88367        46.80855        -1.33151
O         39.62206        35.50251        -0.56434
O         37.41686        37.01920         1.68145
O         34.30528        42.46795         2.42313
O         33.84439        29.22990        -1.28462
O         45.06217        29.24886        -3.43550
H         44.60890        28.83049        -4.19667
O         47.77412        36.29100        -0.48511
H         47.74665        35.45491        -0.99533
O         47.92976        28.66789         0.87104
H         48.14900        27.72348         0.99240
O         49.40602        35.33275         2.70478
H         48.87932        34.61604         3.13013
O         43.29736        44.86780         1.48944
H         42.49385        45.05510         2.02720
O         39.64881        37.44547         2.44848
H         40.39456        37.36334         3.07974
O         39.74793        40.86096         2.23365
H         39.97100        40.13425         2.86111
O         32.64610        40.52891         2.16895
H         33.00780        41.10082         2.88490
O         45.76171        41.06154        -2.20994
H         46.41612        41.06249        -2.94020
O         51.69915        39.31717        -1.15919
H         52.41576        38.65547        -1.29109
O         50.26236        36.17938        -0.70544
H         50.89983        35.59635        -1.19263
O         40.51249        32.89116         2.66484
H         39.80807        32.29752         3.01368
O         44.90141        35.73237         2.82840
H         45.53821        36.26967         3.35133
O         45.78935        42.76577         0.98331
H         45.11656        42.89498         1.69575
O         43.89524        39.88640         2.73148
H         44.74629        39.53395         3.09882
O         51.90611        34.90540         2.35778
H         51.84332        35.74180         2.86866
O         34.87817        28.43242         2.04573
H         35.60444        27.88261         2.41161
O         47.92040        37.20156         2.99876
H         48.11813        38.07149         3.41055
O         43.44597        41.66868        -1.57898
H         43.91609        42.11229        -2.32590
O         35.40650        44.09693        -1.06521
H         35.90796        44.00640        -1.90484
O         51.88290        34.18169        -1.16642
H         51.66365        33.35978        -1.66813
O         31.36529        31.30548         2.47361
H         31.79579        30.57928         2.97162
O         40.30228        45.99042        -2.09653
H         39.37522        45.87548        -2.41690
O         42.77513        32.86529        -1.04311
H         42.57390        33.72755        -1.49065
O         36.38805        43.88718         2.40700
H         35.85316        43.79448         3.22338
O         36.32840        29.72470        -1.11689
H         35.39942        29.52907        -1.48847
O         45.51821        33.11859        -1.03472
H         45.40807        34.04507        -1.35865
O         44.77837        35.52767        -0.79069
H         44.10980        35.89553        -1.42158
O         32.54158        33.72759         1.55731
H         31.99652        33.13787         2.13349
O         41.79130        29.11911         2.01369
H         42.22263        29.91957         2.42750
O         43.98790        33.71778         2.28653
H         43.62785        32.83403         2.59973
O         47.37547        43.47700        -3.74973
H         48.22782        43.58495        -4.21978
O         43.19121        42.34208         1.99218
H         43.35143        41.56734         2.59651
O         37.86508        39.51697        -2.62284
H         38.31608        40.39815        -2.72305
O         39.61625        37.93922        -1.16909
H         38.95266        38.34364        -1.79323
O         38.91168        29.73258        -1.36259
H         37.96723        29.68198        -1.66964
O         42.09893        48.48717         1.29953
H         42.21221        49.43154         1.53104
O         41.97835        35.32278        -1.84518
H         40.99023        35.43822        -1.76638
O         35.97545        30.59342         2.42714
H         36.81090        30.42530         2.92081
O         51.60583        30.82955         2.37931
H         52.45388        30.53199         2.76701
