         280
 CSIRO Nanostructure Databank - Neutral Graphene Oxide Data Set
C         30.07887        31.76480         0.15448
C         30.07825        32.97442         0.45962
C         30.07056        36.04473         1.36689
C         30.01222        37.27041         1.31862
C         30.05001        40.34482         0.08378
C         30.06402        41.45578        -0.45055
C         32.52252        29.14800        -0.92257
C         31.42804        29.64696        -0.60200
C         32.59864        31.96839        -0.52279
C         30.94475        30.97737        -0.63727
C         32.54178        33.25485         0.17468
C         31.19925        33.88579         0.63115
C         32.48817        35.91351         1.55317
C         31.19336        35.10954         1.49026
C         32.45065        37.44334         1.56751
C         31.12138        38.22718         1.32017
C         32.46971        40.16844         0.19838
C         31.14276        39.58299         0.70606
C         32.50451        41.63811        -0.20711
C         31.18335        42.39801        -0.49670
C         32.55485        44.08685        -1.54612
C         31.46205        43.54187        -1.36145
C         35.28373        27.64859        -1.48289
C         35.08601        28.88702        -0.65645
C         33.86635        29.70521        -0.97324
C         35.09913        31.81971        -0.00867
C         33.86597        31.23343        -0.63487
C         35.08060        33.05776         0.57673
C         33.74920        33.68630         1.01953
C         35.06529        35.95667         1.13528
C         33.76017        35.22720         1.06158
C         35.05507        37.42440         1.46039
C         33.73961        38.17530         1.34008
C         35.06572        40.26217         0.52338
C         33.75889        39.48395         0.58255
C         35.08998        41.45518        -0.40523
C         33.81062        42.12988        -0.81334
C         35.14137        44.36914        -1.10530
C         33.91414        43.56418        -1.36706
C         35.15824        45.85218        -0.96617
C         37.67920        27.34843        -1.11744
C         36.32365        26.98953        -1.53171
C         37.76688        28.91529        -1.12568
C         36.42616        29.69802        -0.85271
C         37.65502        31.61013         0.38011
C         36.40004        31.10170        -0.27960
C         37.67418        33.02066         0.92492
C         36.33860        33.69867         1.11512
C         37.64502        35.88561         1.73500
C         36.33106        35.18698         1.43304
C         37.67726        37.40891         1.60439
C         36.36083        38.15113         1.38123
C         37.66425        40.07665         0.21742
C         36.37454        39.57657         0.84734
C         37.68422        41.49543        -0.33258
C         36.39524        42.23108        -0.54008
C         37.64884        44.50736        -0.33614
C         36.29357        43.74689        -0.25349
C         37.61983        45.97484        -0.68622
C         36.32040        46.36463        -0.94591
C         40.24624        24.81151        -2.32384
C         39.19190        25.31462        -1.93725
C         40.24775        27.41233        -1.26159
C         38.95260        26.59052        -1.24889
C         40.22540        28.65911        -0.39932
C         38.94164        29.42062        -0.27853
C         40.23111        31.64736         0.13987
C         38.93319        30.84559         0.25662
C         40.17016        33.05070         0.80015
C         38.99575        33.73173         1.02658
C         40.26743        35.91216         1.62701
C         38.97855        35.05378         1.82045
C         40.25020        37.43890         1.66742
C         38.94940        38.18304         1.51633
C         40.18325        40.31645         0.82709
C         38.95309        39.45160         0.67584
C         40.27048        41.64520         0.13562
C         38.99560        42.24898        -0.36602
C         40.26986        44.36476        -0.99053
C         38.95495        43.75734        -0.43773
C         40.15991        45.86678        -1.27567
C         38.83916        46.63288        -1.17274
C         40.18909        48.68823        -1.35227
C         39.13866        48.06888        -1.15737
C         42.79428        24.69098        -1.96673
C         41.61732        25.24814        -2.63499
C         42.91439        27.44121        -1.39507
C         41.54169        26.84691        -1.75808
C         42.82454        28.69171        -0.51683
C         41.53149        29.33793        -0.08150
C         42.78183        31.47502         0.62471
C         41.47534        30.77643         0.44944
C         42.79777        32.98941         0.81933
C         41.49876        33.72760         1.00682
C         42.75425        36.03520         0.72013
C         41.52424        35.24496         1.13482
C         42.75346        37.57950         0.90461
C         41.52930        38.20823         1.56808
C         42.75177        40.47844         1.31661
C         41.44875        39.70811         1.33062
C         42.72680        41.97655         1.04020
C         41.42612        42.56868         0.50610
C         42.68382        44.85896        -0.04811
C         41.42021        43.96791        -0.04329
C         42.74167        45.82049        -1.24881
C         41.46635        46.59229        -1.52042
C         42.87256        48.63610        -1.62622
C         41.49458        48.15914        -1.74013
C         43.76449        25.15821        -1.37363
C         45.35043        27.04208        -0.67154
C         43.94101        26.44132        -0.60924
C         45.37891        28.60482        -0.20337
C         44.13485        29.43076        -0.36714
C         45.28540        31.48248         0.66748
C         44.03536        30.92463        -0.04589
C         45.36625        32.99815         0.62621
C         44.07507        33.76462         0.55636
C         45.25538        35.89487         1.38295
C         44.05095        35.28095         0.66067
C         45.35587        37.44343         1.32902
C         44.07489        38.21572         1.37311
C         45.37889        40.46729         1.16074
C         44.05675        39.73202         1.31413
C         45.37729        41.98126         1.09042
C         44.03676        42.74267         0.94302
C         45.36159        44.70222        -0.20726
C         44.05200        44.13249         0.28763
C         45.42435        45.83608        -1.26233
C         44.08407        46.48273        -1.55654
C         43.87147        47.91725        -1.77189
C         47.54222        26.98605         0.35724
C         46.43907        26.43937         0.20298
C         47.81913        28.43013         0.41613
C         46.47252        29.08885         0.79808
C         47.85909        31.34824         1.06447
C         46.50992        30.63781         0.95262
C         47.90289        32.85255         1.00259
C         46.62940        33.66575         1.08246
C         47.90776        35.90047         0.80769
C         46.63545        35.16349         1.19497
C         47.88472        37.40075         0.65925
C         46.57056        38.15138         0.77094
C         47.89805        40.37695         0.57237
C         46.56497        39.66207         0.66617
C         47.95394        41.87851         0.68896
C         46.70040        42.76904         0.92893
C         47.96827        44.73352        -0.10000
C         46.66892        43.93927        -0.04727
C         47.64603        46.14741        -0.35841
C         46.59698        46.66556        -0.75231
C         50.49592        28.58785         0.40781
C         49.12526        29.13559         0.43741
C         50.45531        31.36964         0.73187
C         49.18190        30.58850         0.87935
C         50.34097        32.76752         0.13595
C         49.05459        33.56007         0.34294
C         50.21347        35.76567        -0.44111
C         48.97628        35.06277         0.09882
C         50.17260        37.29687        -0.58012
C         48.96160        38.08976        -0.15278
C         50.27905        40.35459        -0.51019
C         49.00543        39.62345        -0.14730
C         50.38631        41.86814        -0.27806
C         49.17382        42.63981         0.19345
C         50.53685        44.64274        -0.02240
C         49.21534        44.16059         0.57733
C         51.55119        29.21663         0.23618
C         52.85883        31.46832        -0.05993
C         52.12880        30.47890         0.71899
C         52.79121        32.69931        -0.19697
C         51.56246        33.48006        -0.42425
C         52.63949        35.88737        -0.50299
C         51.49946        34.95836        -0.65155
C         52.59723        37.11195        -0.60973
C         51.49727        38.05292        -0.83312
C         52.73912        40.30814        -0.28855
C         51.56141        39.54299        -0.75281
C         52.74407        41.56222        -0.19604
C         51.74736        42.54219        -0.16261
C         51.57404        43.91994        -0.02443
O         48.39908        36.77860         1.87101
O         47.51082        43.90460        -1.20702
O         38.40623        39.15517        -0.64312
O         40.75532        27.70544        -2.61376
O         44.86999        33.50221        -0.64302
O         49.25237        40.09945        -1.49352
O         43.42708        35.77543        -0.55898
O         40.52650        40.38577         2.23627
O         39.39202        28.53910         0.78286
O         43.42603        45.57561        -2.49871
O         51.58397        38.86457        -2.01696
O         31.04283        39.40931         2.13152
O         48.37314        28.99217        -0.80405
O         36.94836        32.97472         2.21044
O         46.25378        38.83993        -0.48936
O         31.91640        35.21690         2.71560
O         35.67247        37.93482         2.65804
O         42.28927        33.24638         2.15355
O         48.02777        32.16061         2.26286
O         31.83977        34.26561        -0.61902
O         39.94293        41.59807        -1.27106
O         44.80053        37.91157         2.59264
O         39.27269        46.04414        -2.44009
O         34.39448        35.75342        -0.14607
O         40.98130        43.69914         1.31167
O         43.24840        42.74727         2.15568
O         35.75997        40.52718         1.76794
O         49.48985        42.52447        -1.21322
O         38.49348        44.28080         0.85038
O         42.13621        30.83038         1.73900
O         38.19088        30.79853         1.49014
O         38.95681        34.64933         3.26699
O         48.47483        34.12647        -0.88373
O         34.91734        43.76639        -2.38349
O         33.12156        38.11784         2.65937
O         44.84309        45.07120         1.08474
O         45.17411        29.36486        -1.41042
O         50.02355        30.97311         2.03263
O         36.45809        30.85245        -1.72927
O         34.46450        41.18019        -1.68844
O         49.10503        37.60393        -1.51329
O         34.03430        30.67237        -1.99830
O         41.41491        47.24977        -2.82851
O         42.29041        28.46326         0.81053
O         41.02753        37.85721         2.85287
O         41.30265        35.50293         2.55835
O         45.55695        30.99917         2.00434
O         48.28539        41.01171         1.82272
O         43.42704        40.17984         2.55695
O         36.73761        35.47070         2.79365
O         31.65733        31.77901        -1.60071
O         31.87042        42.52114         0.76612
O         37.11113        41.70924        -1.67673
O         46.74021        34.31989         2.37768
O         38.24446        38.12901         2.76823
O         50.66959        32.73312        -1.28497
O         45.57245        41.26567         2.34949
O         38.21488        26.60925        -0.01095
O         33.15111        39.29452        -0.73744
O         50.64762        35.27382        -1.75271
O         43.51714        26.28337         0.71768
H         44.23041        25.85744         1.23862
O         43.86815        31.49396        -1.36831
H         44.55100        31.10824        -1.96445
O         44.81630        35.56902         2.71290
H         45.46740        35.88768         3.37380
O         40.32802        31.89722        -1.29413
H         41.23830        32.18480        -1.52521
O         45.78540        26.96933        -1.99610
H         46.64508        27.42882        -2.09397
O         41.84587        25.53738        -3.96087
H         41.07095        26.01156        -4.32866
O         42.45806        45.79554         1.02197
H         42.31148        45.28011         1.84803
O         33.50275        33.15133         2.33191
H         34.27444        33.32204         2.91399
O         38.13290        29.17935        -2.49147
H         37.69986        30.01606        -2.78247
O         42.61559        38.13386        -0.43978
H         43.09271        37.53607        -1.06654
O         40.59529        43.77917        -2.25480
H         40.08291        44.24163        -2.95591
O         39.82327        33.53365         3.49233
H         40.68949        33.95496         3.73009
O         45.85564        45.24651        -2.47067
H         45.74915        45.88332        -3.20688
O         35.84166        43.83693         1.10794
H         36.62087        43.96499         1.69503
O         35.00677        28.52975         0.71295
H         35.65265        27.82152         0.92058
O         52.54611        30.42887         2.01485
H         51.91717        29.90471         2.55419
O         43.49223        27.83661        -2.62957
H         43.50527        27.06685        -3.23826
O         46.88805        43.41247         2.20057
H         46.76581        42.73079         2.90073
O         46.13024        28.53992         2.07353
H         45.55445        29.18154         2.55160
O         49.23441        44.34180         1.96607
H         48.89126        45.22820         2.20067
