         600
 CSIRO Nanostructure Databank - Neutral Graphene Oxide Data Set
C         23.78537        27.43031         2.89139
C         23.79662        28.80370         2.89108
C         23.82840        31.74983         2.87687
C         23.79737        33.13317         2.79386
C         23.48997        36.03080         2.13122
C         23.39403        37.39322         1.87050
C         23.14876        40.25161         1.16278
C         23.10013        41.61783         0.95695
C         23.02385        44.52214         0.49882
C         23.00533        45.89343         0.36208
C         25.89324        24.55744         1.76041
C         24.84698        25.26994         2.30825
C         25.96145        27.38825         1.74512
C         24.85923        26.68842         2.32108
C         25.97398        28.81605         1.74700
C         24.88123        29.54674         2.32545
C         26.08793        31.72696         1.84881
C         24.86820        30.97307         2.31060
C         25.77361        33.13463         1.39341
C         24.74391        33.85350         1.98219
C         25.64938        35.98372         1.02374
C         24.60996        35.28860         1.71443
C         25.59552        37.39179         0.81392
C         24.43093        38.10200         1.22331
C         25.51572        40.22166         0.55664
C         24.34730        39.52439         0.97605
C         25.48469        41.64323         0.43439
C         24.26343        42.35225         0.61216
C         25.46757        44.49304         0.26089
C         24.24045        43.78814         0.45672
C         25.45129        45.92240         0.14308
C         24.21499        46.62269         0.19100
C         25.39125        48.73916        -0.06828
C         24.21204        48.03882         0.06649
C         28.16296        23.06431         0.58345
C         28.14847        24.47950         0.67656
C         27.01970        25.21842         1.19568
C         28.14086        27.33853         0.56452
C         27.04429        26.64140         1.17863
C         28.06440        28.76381         0.44190
C         27.04711        29.50022         1.07716
C         28.00281        31.60302         0.23820
C         27.02776        30.93834         0.96260
C         27.84357        33.02340        -0.10647
C         26.65694        33.79669         0.42332
C         27.70922        35.92056        -0.33591
C         26.70869        35.26713         0.39962
C         27.84833        37.36348        -0.28604
C         26.72394        38.07802         0.23773
C         27.91615        40.21798        -0.05191
C         26.71508        39.50444         0.23925
C         27.91863        41.63895         0.05325
C         26.71249        42.35425         0.21388
C         27.93387        44.51839         0.01224
C         26.70285        43.78972         0.18311
C         27.91130        45.94495        -0.07186
C         26.66889        46.65220        -0.01457
C         27.89629        48.80174        -0.17012
C         26.64772        48.07324        -0.09896
C         27.92386        50.22762        -0.14009
C         30.46482        23.07533        -0.23502
C         29.26159        22.38932         0.08701
C         30.50139        24.46299        -0.06447
C         29.32144        25.18596         0.27970
C         30.44500        27.28065        -0.41827
C         29.29202        26.61621         0.15556
C         30.32393        28.70653        -0.81042
C         29.07464        29.47010        -0.35803
C         30.25671        31.63144        -0.80626
C         29.13413        30.93859        -0.33772
C         30.17726        33.08055        -1.29950
C         28.94349        33.77288        -0.71677
C         30.44896        36.16493        -1.42470
C         28.63122        35.06643        -1.04914
C         30.34464        37.44416        -0.91828
C         29.05800        38.10073        -0.61671
C         30.33516        40.26860        -0.82108
C         29.09449        39.49396        -0.41322
C         30.41973        41.67966        -0.30550
C         29.21661        42.36426         0.26277
C         30.38110        44.53832        -0.23927
C         29.16857        43.83419        -0.05443
C         30.35142        45.95035        -0.30789
C         29.13329        46.66235        -0.20040
C         30.37360        48.82588        -0.18932
C         29.12508        48.10325        -0.21925
C         30.36179        50.25203        -0.04355
C         29.11001        50.92252        -0.06521
C         32.52583        20.48621        -2.02591
C         31.48938        21.07941        -1.30139
C         32.86951        23.07319        -0.97989
C         31.62691        22.38104        -0.80218
C         32.95762        24.47850        -0.73838
C         31.80973        25.20815        -0.08469
C         32.82460        27.29231        -1.11506
C         31.62871        26.60643        -0.61223
C         32.79984        28.79596        -1.13970
C         31.53879        29.52249        -0.90517
C         32.75427        31.68494        -0.74460
C         31.49507        30.90677        -0.91667
C         32.75178        33.17323        -0.88100
C         31.48460        33.89977        -1.16224
C         32.84343        35.98083        -1.02196
C         31.58329        35.28559        -1.23978
C         32.84280        37.38268        -0.81452
C         31.60935        38.12719        -0.70167
C         32.86222        40.22667        -0.54065
C         31.62580        39.51445        -0.59651
C         32.87374        41.64947        -0.47865
C         31.61868        42.36482        -0.34021
C         32.86454        44.49065        -0.37915
C         31.64809        43.81811        -0.28337
C         32.89251        45.94499        -0.65174
C         31.59276        46.69691        -0.56724
C         32.84517        48.79049         0.03545
C         31.60410        48.14236        -0.28365
C         32.81921        50.22780         0.29222
C         31.60009        50.95404         0.13450
C         32.83657        53.04214         0.36093
C         31.64525        52.37406         0.21345
C         35.73117        18.62468        -2.09513
C         35.71076        20.02441        -2.17208
C         33.74645        21.14933        -2.13913
C         35.32640        23.01943        -1.48849
C         34.00561        22.39630        -1.52896
C         35.35064        24.44059        -1.34290
C         34.12412        25.16574        -1.07698
C         35.30649        27.34037        -1.28752
C         34.14131        26.61346        -1.08016
C         35.34021        28.77345        -1.22781
C         34.09315        29.47231        -0.88174
C         35.31537        31.67587        -1.08375
C         34.07476        30.96561        -0.74933
C         35.24644        33.09672        -1.26735
C         34.05927        33.83264        -1.15703
C         35.29311        35.98910        -1.13071
C         34.07300        35.27023        -1.14002
C         35.31371        37.37876        -0.87648
C         34.08342        38.08509        -0.72498
C         35.33237        40.20665        -0.52913
C         34.09290        39.50434        -0.57743
C         35.33495        41.62379        -0.40862
C         34.10250        42.34666        -0.39059
C         35.33446        44.47990        -0.13541
C         34.11754        43.78338        -0.30778
C         35.36831        45.91795        -0.02107
C         34.20723        46.72606        -0.56161
C         35.21029        48.63157         0.87502
C         34.04325        48.07865         0.09580
C         35.23159        50.15593         0.93895
C         34.01545        50.91568         0.57439
C         35.31779        53.03648         0.56277
C         34.06500        52.33681         0.51963
C         35.38323        54.45020         0.24309
C         37.80940        18.74946        -0.86000
C         36.73890        17.99314        -1.38317
C         37.80552        20.17105        -1.00435
C         36.66495        20.84669        -1.54226
C         37.77293        23.03079        -1.18786
C         36.57017        22.30597        -1.46634
C         37.78842        24.46578        -1.22164
C         36.57208        25.15768        -1.37061
C         37.81964        27.38116        -1.30543
C         36.57180        26.63163        -1.69384
C         37.80526        28.78919        -1.30903
C         36.53591        29.50675        -1.27015
C         37.77657        31.67739        -1.34502
C         36.51895        30.95259        -1.21535
C         37.77706        33.05248        -1.47226
C         36.50714        33.78461        -1.59140
C         37.82833        35.97092        -1.20992
C         36.53922        35.30077        -1.48138
C         37.80581        37.37036        -0.91785
C         36.56821        38.08135        -0.80887
C         37.80818        40.19497        -0.53460
C         36.57005        39.48671        -0.61348
C         37.80406        41.61679        -0.36037
C         36.57363        42.32991        -0.30145
C         37.79889        44.42092         0.09520
C         36.57421        43.74251        -0.09233
C         37.79323        45.82686         0.63704
C         36.53362        46.58858         0.32461
C         37.76466        48.71502         0.58787
C         36.55149        48.01309         0.51232
C         37.81381        50.14773         0.75480
C         36.54571        50.88580         0.95453
C         37.77304        53.02738         0.76580
C         36.54355        52.34387         0.72276
C         37.73045        54.51241         1.02914
C         36.53140        55.14865         0.37570
C         40.02754        16.08946         0.62214
C         38.91252        16.71914         0.11517
C         40.14356        18.82841        -0.06663
C         38.94845        18.09297        -0.25604
C         40.17297        20.23862        -0.32651
C         38.98848        20.91839        -0.70606
C         40.20624        23.05751        -0.70444
C         38.99575        22.33637        -0.89078
C         40.19295        24.48738        -0.73810
C         39.01706        25.20006        -1.00029
C         40.21956        27.38963        -0.89536
C         39.02358        26.66085        -1.05182
C         40.27660        28.79902        -1.14256
C         39.03472        29.52298        -1.28890
C         40.26106        31.65951        -1.40252
C         39.03670        30.94355        -1.36455
C         40.29355        33.06946        -1.41191
C         39.04030        33.82490        -1.78022
C         40.27042        35.93601        -1.09396
C         39.02657        35.25992        -1.28642
C         40.27154        37.34724        -0.88599
C         39.04058        38.06854        -0.80026
C         40.27900        40.19960        -0.56375
C         39.03795        39.48729        -0.62477
C         40.27240        41.62080        -0.38242
C         39.03667        42.32567        -0.27132
C         40.27001        44.46730         0.00177
C         39.02638        43.73749        -0.04057
C         40.26354        45.89988         0.12182
C         39.04368        46.60821         0.30642
C         40.25385        48.74644         0.30799
C         39.02629        48.00914         0.38338
C         40.26839        50.16641         0.48888
C         39.00877        50.86382         0.69189
C         40.22637        53.04085         0.76912
C         39.00872        52.32254         0.77513
C         40.24272        54.46947         0.71570
C         39.03169        55.21884         0.75749
C         40.26891        57.30655         0.60669
C         39.05936        56.61139         0.72040
C         42.44760        16.12100         1.16030
C         41.26675        16.77963         0.72257
C         42.58066        18.84168         0.37600
C         41.33031        18.15648         0.36281
C         42.61828        20.24429         0.03541
C         41.40558        20.95261        -0.23048
C         42.68999        23.05209        -0.40382
C         41.43428        22.35841        -0.44127
C         42.71871        24.48060        -0.43029
C         41.43331        25.19146        -0.36655
C         42.74223        27.38194        -0.63247
C         41.44941        26.71291        -0.46943
C         42.75696        28.77701        -0.95229
C         41.51829        29.46939        -1.18104
C         42.79231        31.66202        -1.30261
C         41.53945        30.89967        -1.66733
C         42.76432        33.04354        -1.17040
C         41.50758        33.77844        -1.24304
C         42.73868        35.92950        -1.00740
C         41.50989        35.20779        -1.12318
C         42.73025        37.33782        -0.92162
C         41.51176        38.06108        -0.82968
C         42.74235        40.21800        -0.59719
C         41.50321        39.49119        -0.68319
C         42.73002        41.64029        -0.40780
C         41.49942        42.34238        -0.31386
C         42.72551        44.49835        -0.18748
C         41.49141        43.77220        -0.15809
C         42.72054        45.91965        -0.10946
C         41.48747        46.62439         0.03496
C         42.71653        48.77598         0.06843
C         41.48554        48.05069         0.13478
C         42.71674        50.19087         0.23511
C         41.49020        50.86518         0.49197
C         42.75326        53.06131         0.54588
C         41.52247        52.29407         0.97929
C         42.72693        54.47373         0.59052
C         41.48911        55.18179         0.63706
C         42.72338        57.35064         0.48349
C         41.48021        56.61151         0.57132
C         43.65622        16.78109         1.16503
C         45.04625        18.77904         0.60035
C         43.76204        18.13478         0.73701
C         45.08203        20.11888        -0.00530
C         43.85173        20.92160        -0.07828
C         45.17935        23.03249        -0.31304
C         43.90768        22.32306        -0.29128
C         45.18184        24.48834        -0.37861
C         43.92803        25.19815        -0.39984
C         45.18066        27.35148        -0.46293
C         43.93714        26.64681        -0.48400
C         45.19602        28.77078        -0.64201
C         43.99935        29.45541        -0.97947
C         45.27597        31.59833        -0.87354
C         44.08874        30.88286        -1.46073
C         45.26866        33.06608        -1.07495
C         43.99334        33.81090        -1.04331
C         45.24785        35.94190        -0.78853
C         44.00081        35.19978        -0.98816
C         45.24471        37.35295        -0.70050
C         44.01363        38.09986        -1.13783
C         45.18778        40.21944        -0.46201
C         43.96786        39.52992        -0.67143
C         45.18749        41.65034        -0.34202
C         43.96478        42.35817        -0.35072
C         45.18499        44.50792        -0.35076
C         43.96263        43.79320        -0.29189
C         45.17935        45.94276        -0.32104
C         43.94905        46.64745        -0.17648
C         45.18641        48.78547        -0.18513
C         43.95318        48.07116        -0.10821
C         45.18927        50.21589        -0.09990
C         43.95644        50.92529         0.12633
C         45.15853        53.09984        -0.08252
C         43.93133        52.34588         0.22914
C         45.27321        54.53848         0.31622
C         43.98533        55.25652         0.62345
C         43.91682        56.72126         0.51579
C         47.48176        18.87581         0.92943
C         46.25451        18.17873         0.94154
C         47.58940        20.21662         0.56772
C         46.41338        20.86620        -0.03277
C         47.67689        22.99561        -0.24698
C         46.37290        22.33316        -0.15046
C         47.67883        24.51720        -0.36942
C         46.38662        25.21269        -0.32922
C         47.64057        27.35953        -0.18227
C         46.40719        26.64534        -0.30033
C         47.63559        28.78342        -0.19992
C         46.42916        29.47992        -0.45613
C         47.59654        31.66151         0.08592
C         46.40509        30.92884        -0.48727
C         47.72490        33.08727        -0.36575
C         46.54048        33.81160        -0.83521
C         47.68711        35.94368        -0.35370
C         46.47656        35.25934        -0.62395
C         47.67572        37.36551        -0.21876
C         46.42733        38.07046        -0.38603
C         47.60213        40.23672         0.08094
C         46.39790        39.49336        -0.30412
C         47.65677        41.68435        -0.16889
C         46.42701        42.36964        -0.29604
C         47.66355        44.47090        -0.48507
C         46.42616        43.79076        -0.37635
C         47.62141        45.91551        -0.75516
C         46.39052        46.66521        -0.46149
C         47.67844        48.78919        -0.39787
C         46.41688        48.07604        -0.37469
C         47.67435        50.21278        -0.25738
C         46.44112        50.89327        -0.16800
C         47.70293        53.11216         0.17515
C         46.45281        52.35970        -0.24259
C         47.63555        54.53958        -0.32560
C         46.48824        55.22530        -0.20776
C         49.97078        20.38174         1.27478
C         48.80704        20.97961         0.72722
C         50.08508        23.06731         0.39432
C         48.88127        22.33792         0.30090
C         50.11580        24.51509         0.18054
C         48.90865        25.23978        -0.01404
C         50.11720        27.36210         0.15398
C         48.88873        26.64989        -0.00062
C         50.12192        28.79284         0.12515
C         48.88902        29.50850        -0.02443
C         50.12514        31.63229         0.10781
C         48.90090        30.91010        -0.00383
C         50.14015        33.06491         0.07330
C         48.90769        33.78260        -0.16741
C         50.13928        35.92317        -0.07021
C         48.91808        35.22552        -0.22633
C         50.13694        37.35387        -0.03489
C         48.90230        38.04415        -0.04231
C         50.16775        40.23990         0.02142
C         48.91473        39.49148         0.20015
C         50.14463        41.64921        -0.09620
C         48.89299        42.36748        -0.19428
C         50.15345        44.50335        -0.43293
C         48.89539        43.78535        -0.40014
C         50.17643        45.90977        -0.54257
C         48.93919        46.66637        -0.78187
C         50.15596        48.79813        -0.45035
C         48.91188        48.11029        -0.51648
C         50.16662        50.22521        -0.36714
C         48.93324        50.94190        -0.27275
C         50.20171        53.02519        -0.14329
C         48.96711        52.35236        -0.15477
C         51.16399        21.06641         1.32215
C         52.52628        23.08332         0.85993
C         51.26986        22.40546         0.85814
C         52.62214        24.45929         0.25023
C         51.32869        25.22608         0.29734
C         52.58375        27.36651         0.43698
C         51.34348        26.64372         0.28617
C         52.58492        28.78068         0.42940
C         51.35019        29.49864         0.26035
C         52.58921        31.64454         0.36400
C         51.35872        30.92412         0.23615
C         52.59403        33.06439         0.31303
C         51.36128        33.77575         0.15173
C         52.59369        35.92662         0.16192
C         51.36981        35.20918         0.07829
C         52.59530        37.36005         0.12090
C         51.37270        38.07668         0.04977
C         52.62499        40.22654        -0.00810
C         51.38303        39.51320         0.00817
C         52.61680        41.65382        -0.07713
C         51.38268        42.36574        -0.16133
C         52.62804        44.50090        -0.29100
C         51.38524        43.78869        -0.28339
C         52.62960        45.92645        -0.41248
C         51.39761        46.63494        -0.48503
C         52.62983        48.77208        -0.55456
C         51.38660        48.06906        -0.51038
C         52.64712        50.19563        -0.43562
C         51.41809        50.92419        -0.35094
C         51.39969        52.33870        -0.25710
C         54.93837        23.11892         1.23624
C         53.72459        22.44429         1.21857
C         55.00821        24.53061         1.04224
C         53.82686        25.23865         0.71638
C         55.02668        27.37735         0.88202
C         53.81496        26.65318         0.66452
C         55.03336        28.80430         0.82171
C         53.81308        29.50773         0.59763
C         55.04220        31.65502         0.70212
C         53.81957        30.93344         0.55134
C         55.04959        33.08200         0.61559
C         53.82641        33.78740         0.40631
C         55.05829        35.92896         0.34297
C         53.82458        35.21087         0.30259
C         55.04856        37.35255         0.21033
C         53.83940        38.07451         0.14138
C         55.08543        40.24510         0.12319
C         53.85329        39.51272         0.06010
C         55.06889        41.65613         0.11755
C         53.85565        42.37170        -0.03588
C         55.10883        44.52102        -0.21463
C         53.85771        43.79926        -0.15823
C         55.10997        45.92413        -0.44763
C         53.86581        46.64357        -0.51977
C         55.10560        48.79668        -1.03778
C         53.85283        48.04498        -0.65719
C         55.09559        50.18844        -0.45852
C         53.92727        50.84515        -0.26431
C         57.46819        24.56927         1.49678
C         56.24324        25.24796         1.23447
C         57.46355        27.38741         1.31457
C         56.24209        26.66599         1.13905
C         57.47853        28.81341         1.23694
C         56.25663        29.52857         0.99557
C         57.49679        31.67007         1.10357
C         56.26573        30.94753         0.93008
C         57.50949        33.09938         1.05058
C         56.27367        33.81295         0.76817
C         57.49484        35.98401         0.87502
C         56.26642        35.21145         0.60472
C         57.62389        37.34467         0.29508
C         56.30953        38.08818         0.02540
C         57.58397        40.22397         0.15809
C         56.34037        39.54290         0.12474
C         57.60417        41.65453         0.15840
C         56.32907        42.40748         0.44358
C         57.57311        44.51616        -0.13210
C         56.33659        43.82938        -0.04948
C         57.58086        45.92846        -0.36615
C         56.35364        46.63836        -0.52421
C         57.61591        48.69747        -0.87854
C         56.38327        48.03633        -0.77145
C         58.64654        25.25970         1.65427
C         59.88256        27.40136         1.73142
C         58.67098        26.67916         1.56812
C         59.89413        28.77516         1.64991
C         58.70162        29.51268         1.40588
C         59.91280        31.68063         1.49257
C         58.71073        30.95634         1.33346
C         59.92125        33.06266         1.44668
C         58.73344        33.78844         1.24372
C         60.03127        36.01471         1.04735
C         58.77626        35.26798         1.24577
C         60.03958        37.35917         0.81359
C         58.85161        38.11145         0.51542
C         60.05039        40.26043         0.22441
C         58.83631        39.50209         0.26929
C         60.04259        41.62198         0.09594
C         58.81523        42.36326         0.10176
C         60.02632        44.55064        -0.02760
C         58.81718        43.81136         0.00562
C         60.03610        45.91505        -0.23741
C         58.82012        46.63171        -0.43276
C         58.81683        48.01972        -0.69691
O         57.91387        35.89749         2.27430
O         46.12061        33.42559        -2.24090
O         36.45857        34.63883        -2.80700
O         44.92278        54.79767         1.69867
O         32.68445        32.53471         0.46673
O         41.29780        26.03054         0.83448
O         48.15077        39.86696         1.40642
O         47.87168        23.65419        -1.54497
O         45.89597        20.18593        -1.22796
O         48.25062        46.28918        -2.03378
O         32.70825        28.04170        -2.39383
O         45.73904        52.86787        -1.41430
O         29.34737        35.64803        -2.10711
O         34.16878        30.09848         0.44335
O         57.11748        37.48722        -1.06266
O         35.82453        50.57740         2.22338
O         29.23955        28.96547        -1.73687
O         26.59571        33.17923        -0.91970
O         34.71372        20.58463        -2.98234
O         32.18048        46.30360        -1.89329
O         39.08350        33.92653        -3.25140
H         38.19863        34.27797        -3.52355
O         56.30934        42.53083         1.93190
H         57.12342        43.01535         2.18912
O         34.61678        47.05035        -1.93240
H         33.78680        47.04309        -2.47056
O         47.63657        53.15029         1.63416
H         48.42150        53.63541         1.96361
O         41.56471        30.77893        -3.14211
H         41.48583        31.68535        -3.51094
O         44.35855        30.81099        -2.90258
H         44.75264        31.66923        -3.17342
O         44.14541        38.19757        -2.61561
H         43.34400        38.65549        -2.94861
O         47.29882        31.75561         1.53793
H         48.09662        32.12213         1.97651
O         29.41830        42.30518         1.74202
H         28.66593        42.78289         2.15347
O         37.52373        54.64892         2.48711
H         36.74664        54.09633         2.72030
O         36.56332        26.68683        -3.17362
H         35.69668        26.34028        -3.47694
O         55.05056        48.96341        -2.50578
H         54.21304        49.43193        -2.70977
O         30.22999        40.41620        -2.29074
H         30.22223        39.51235        -2.67316
O         37.81709        45.66923         2.10651
H         38.64253        45.19153         2.33583
O         29.96448        32.95553        -2.73702
H         29.66792        33.83644        -3.06152
O         26.90025        31.93667         3.08745
H         26.29197        32.30209         3.76635
O         32.21131        25.35008         1.33117
H         31.44145        25.71323         1.81904
O         41.65898        52.17496         2.44900
H         41.71564        53.08519         2.81160
O         52.86327        24.22009        -1.19689
H         53.68004        23.68021        -1.26374
O         34.95437        48.16148         2.24013
H         35.41607        48.79844         2.83642
H         22.93796        26.88575         3.33271
H         22.94638        29.33794         3.33546
H         22.99487        31.25102         3.39137
H         22.97243        33.67281         3.27737
H         22.66066        35.53424         2.65278
H         22.49475        37.92757         2.20539
H         22.22906        39.72820         1.45679
H         22.14317        42.13614         1.10165
H         22.07058        43.99297         0.62931
H         22.05114        46.43893         0.38971
H         25.85500        23.46005         1.77761
H         23.98996        24.73963         2.74820
H         25.34610        49.83292        -0.15240
H         23.25221        48.57473         0.08960
H         27.27565        22.48474         0.87170
H         26.98439        50.79527        -0.13365
H         29.20915        21.29619        -0.00504
H         29.07107        52.01759         0.00270
H         32.38302        19.51737        -2.52079
H         30.53615        20.54357        -1.20767
H         32.82724        54.13942         0.38317
H         30.72178        52.95983         0.11883
H         34.94696        18.04624        -2.59989
H         34.49463        54.94953        -0.16700
H         36.73981        16.89826        -1.30750
H         36.55434        56.21267         0.10192
H         39.97815        15.03274         0.92192
H         37.97653        16.15196         0.02232
H         40.27168        58.40509         0.57132
H         38.12678        57.18498         0.80473
H         42.39126        15.06680         1.46750
H         42.66993        58.44705         0.41568
H         44.55808        16.23794         1.47743
H         44.85621        57.29096         0.50081
H         48.36459        18.33504         1.29596
H         46.26684        17.14580         1.31515
H         48.53032        55.02515        -0.74266
H         46.42810        56.27939        -0.51807
H         49.93998        19.34818         1.64262
H         50.22450        54.11938        -0.03631
H         52.04491        20.55419         1.72963
H         52.33789        52.90826        -0.26082
H         55.84012        22.55543         1.50605
H         53.72347        21.38425         1.50653
H         56.04682        50.71360        -0.29201
H         53.95423        51.88860         0.08055
H         57.48627        23.47384         1.56515
H         57.64134        49.76908        -1.11941
H         59.58423        24.71956         1.84870
H         60.81377        26.84988         1.92490
H         60.84953        29.29876         1.78224
H         60.86120        31.15881         1.66991
H         60.87030        33.59286         1.59959
H         60.99054        35.48906         1.14942
H         61.01048        37.87363         0.78170
H         61.01537        39.73708         0.25364
H         61.00209        42.14940         0.01978
H         60.98712        44.03667         0.10685
H         60.98971        46.46129        -0.26813
H         59.77255        48.55779        -0.77256
