         480
 CSIRO Nanostructure Databank - Neutral Graphene Oxide Data Set
C         38.38585        50.24239         2.98231
C         37.24153        50.81320         3.54075
C         37.06413        52.32569         1.66347
C         36.57004        51.84449         2.87755
C         40.14433        48.62554         1.40082
C         40.08920        50.02407         1.18360
C         38.90081        50.69689         1.75159
C         39.95479        52.80020        -0.04073
C         38.22400        51.75727         1.12616
C         39.96306        54.20759        -0.26797
C         42.48836        48.55046         0.79195
C         41.28108        47.89222         1.14437
C         42.44634        49.95495         0.50598
C         41.19172        50.67713         0.57680
C         42.37065        52.78516        -0.22684
C         41.12631        52.07046         0.15494
C         42.39522        54.26089        -0.26505
C         41.13604        54.92718        -0.29033
C         44.92031        45.67704         0.83667
C         43.78618        46.39413         0.99149
C         44.92999        48.53853         0.57912
C         43.73418        47.83504         0.76514
C         44.90340        49.94573         0.41208
C         43.68642        50.63164         0.29502
C         44.91503        52.87277         0.02780
C         43.70326        52.05462        -0.12054
C         44.87263        54.24265        -0.17597
C         43.62419        54.94505        -0.35838
C         44.77863        57.11755        -0.55007
C         43.65127        56.37191        -0.61942
C         47.58656        44.16109         0.58296
C         47.48867        45.60090         0.29556
C         46.17074        46.34029         0.40735
C         47.40100        48.50077        -0.07430
C         46.26254        47.82618         0.72496
C         47.42588        49.97727         0.23390
C         46.18784        50.68540         0.45015
C         47.45537        52.88637        -0.05949
C         46.19387        52.20590         0.36324
C         47.43320        54.33274        -0.21465
C         46.12688        55.02731        -0.00731
C         47.32241        57.30021        -0.38094
C         46.06020        56.52389        -0.12927
C         47.39096        58.69987         0.05396
C         50.02514        44.32182         0.77159
C         48.78303        43.57032         0.80652
C         49.98174        45.70269         0.58190
C         48.73992        46.40016         0.38767
C         49.94816        48.51848         0.12834
C         48.71330        47.78458         0.22637
C         49.86706        49.95849        -0.20068
C         48.70352        50.74422         0.36940
C         49.87046        52.82848        -0.59276
C         48.62397        52.16644        -0.16423
C         49.87209        54.37650        -0.66069
C         48.59639        55.05241        -0.38180
C         49.88530        57.24788        -0.13759
C         48.62637        56.53724        -0.45154
C         49.84884        58.62815         0.04332
C         48.59039        59.32902         0.15492
C         52.61456        41.59100         1.10601
C         51.40433        42.27427         1.18538
C         52.50928        44.32921         0.47079
C         51.30599        43.63411         0.84454
C         52.48790        45.73334         0.27516
C         51.26217        46.48841         0.73131
C         52.41840        48.60065         0.00126
C         51.17984        47.88470         0.18680
C         52.40204        49.98099        -0.18075
C         51.15839        50.70461        -0.40427
C         52.35646        52.89721        -0.39120
C         51.16515        52.17503        -0.37622
C         52.34958        54.34724        -0.45016
C         51.14918        55.07932        -0.46450
C         52.35454        57.18105        -0.08214
C         51.14147        56.51146        -0.18609
C         52.40967        58.58998         0.31841
C         51.09309        59.37409         0.35061
C         52.34585        61.50412        -0.01165
C         51.18266        60.82669         0.07884
C         55.15837        40.13067         0.76882
C         55.01658        41.48898         0.41702
C         53.78438        42.21915         0.63194
C         54.90529        44.29620        -0.14445
C         53.73444        43.60960         0.31264
C         54.84481        45.68689        -0.39090
C         53.65292        46.41895        -0.12395
C         54.85608        48.57070        -0.35365
C         53.67068        47.87691        -0.13357
C         54.94919        50.00198        -0.06368
C         53.61112        50.76838         0.01170
C         54.84360        52.88880        -0.25083
C         53.62143        52.20935        -0.25372
C         54.81486        54.33341        -0.28425
C         53.62130        55.02396        -0.36874
C         54.88792        57.23860        -0.38097
C         53.59005        56.50920        -0.62762
C         54.88204        58.62637        -0.30764
C         53.69570        59.35405         0.16846
C         54.89501        61.63321        -0.29595
C         53.67555        60.86837         0.11827
C         55.00256        62.96305        -0.02361
C         57.39602        39.96266        -0.19654
C         56.33012        39.40719         0.52106
C         57.25584        41.34892        -0.63805
C         56.11757        42.16322        -0.19884
C         57.32854        44.26870        -0.79276
C         56.11614        43.55582        -0.40754
C         57.30431        45.65683        -0.97255
C         56.02738        46.36634        -0.94743
C         57.31763        48.65125        -0.96226
C         56.03560        47.91905        -0.92964
C         57.36206        50.02936        -0.71444
C         56.15234        50.77409        -0.40157
C         57.35908        52.93224        -0.39703
C         56.11195        52.16831        -0.32871
C         57.34728        54.30576        -0.28233
C         56.08754        55.07277         0.04238
C         57.34305        57.19459        -0.58988
C         56.11235        56.51426        -0.43174
C         57.33330        58.63502        -0.95442
C         56.04587        59.39011        -0.80173
C         57.38937        61.65213        -1.13962
C         56.05422        60.89804        -0.87416
C         57.39429        63.06540        -0.59841
C         56.24581        63.67199        -0.17481
C         59.85989        37.13452        -0.55404
C         58.66950        37.83527        -0.38669
C         59.83308        39.95511        -0.77197
C         58.61632        39.24109        -0.48305
C         59.82696        41.37584        -0.88359
C         58.57094        42.11787        -1.00473
C         59.82343        44.27303        -0.89813
C         58.57830        43.56786        -0.91790
C         59.81520        45.69397        -0.97193
C         58.53987        46.35228        -1.50713
C         59.84776        48.61629        -1.14315
C         58.52752        47.89641        -1.36548
C         59.82022        50.04691        -0.77338
C         58.61543        50.75827        -0.70144
C         59.84124        52.88576        -0.47811
C         58.62329        52.19565        -0.51000
C         59.87971        54.34179        -0.42765
C         58.61913        55.08209        -0.05463
C         59.80113        57.25102        -0.55903
C         58.57699        56.52480        -0.50991
C         59.84116        58.63866        -0.56922
C         58.63748        59.41718        -0.85184
C         59.82051        61.57554        -0.47000
C         58.64189        60.88993        -0.69292
C         59.85780        63.02063        -0.47732
C         58.68118        63.75452        -0.55152
C         59.91956        65.87182        -0.56365
C         58.73331        65.19575        -0.53948
C         62.45319        35.73017        -0.99056
C         62.34491        37.09445        -0.83535
C         61.08562        37.80582        -0.72757
C         62.28996        39.96872        -0.95990
C         61.07726        39.23548        -0.78430
C         62.19026        41.32543        -1.22102
C         61.02892        42.10792        -0.98323
C         62.26249        44.26250        -0.48856
C         61.07261        43.55181        -0.84506
C         62.20484        45.67997        -0.37867
C         61.02522        46.39792        -0.77193
C         62.26105        48.52416        -0.60748
C         61.07204        47.83489        -0.85637
C         62.25850        49.96391        -0.57379
C         61.07645        50.71215        -0.63339
C         62.29712        52.85408        -0.66035
C         61.09648        52.16460        -0.58389
C         62.35711        54.30890        -0.28208
C         61.05595        55.03778        -0.49609
C         62.35251        57.25216        -0.51884
C         61.07666        56.50723        -0.86500
C         62.37853        58.62821        -0.47956
C         61.09899        59.35247        -0.29014
C         62.39974        61.55268        -0.37442
C         61.10109        60.85482        -0.20204
C         62.41929        62.95839        -0.44360
C         61.15029        63.72676        -0.12068
C         62.38802        65.86093        -0.64683
C         61.18481        65.18728        -0.52819
C         62.47531        67.29543        -0.72267
C         64.88324        35.70340        -0.65129
C         63.73012        35.07350        -1.05479
C         64.71675        37.07918        -0.04205
C         63.63220        37.85256        -0.75733
C         64.75235        40.09496        -0.08471
C         63.65010        39.35136        -0.81735
C         64.80737        41.45842         0.11932
C         63.90687        42.38925        -0.53097
C         64.39094        44.29872         0.96584
C         63.49764        43.60522        -0.04902
C         64.52970        45.74641         0.55319
C         63.39963        46.40611        -0.00315
C         64.68968        48.48613        -0.01798
C         63.46256        47.80318        -0.22653
C         64.78781        49.84696        -0.67049
C         63.54038        50.64903        -0.36308
C         64.85836        52.84778        -0.80264
C         63.57028        52.14030        -0.49777
C         64.87697        54.33692        -0.79135
C         63.55218        55.09623        -0.85784
C         64.89096        57.18885        -0.51825
C         63.60638        56.47784        -0.19134
C         64.85925        58.64171        -0.74795
C         63.60463        59.38724        -0.55604
C         64.89132        61.51402        -0.44016
C         63.61834        60.79583        -0.47052
C         64.88284        62.97313        -0.37641
C         63.64414        63.65848        -0.50434
C         64.90764        65.84440        -0.33825
C         63.68631        65.11988        -0.86388
C         64.89941        67.24348        -0.29903
C         63.66592        67.94621        -0.58122
C         67.57230        33.09492        -1.11772
C         66.36425        33.71156        -1.03629
C         67.33901        35.87139        -0.39328
C         66.21237        35.11771        -0.72407
C         67.23219        37.22846         0.15481
C         65.97802        37.87062         0.10145
C         66.95816        39.91137         1.27591
C         65.80922        39.25525         0.56148
C         67.01029        41.39193         1.32984
C         65.66137        42.07256         1.23458
C         66.88039        44.25565         1.37965
C         65.73094        43.58028         1.10080
C         66.86440        45.74120         1.44466
C         65.69635        46.45299         0.86271
C         67.00641        48.61086         0.92717
C         65.78727        47.83717         0.55424
C         67.11538        50.04667         0.51304
C         66.06520        50.63198        -0.36211
C         67.29800        52.87890        -0.00242
C         66.12435        52.11879        -0.49160
C         67.28891        54.31187        -0.05299
C         66.09764        55.05005        -0.36860
C         67.40453        57.20233        -0.34542
C         66.07652        56.47491        -0.39536
C         67.24700        58.66642         0.12387
C         66.16351        59.39951        -0.63917
C         67.40465        61.63022        -0.57313
C         66.10306        60.85093        -0.45318
C         67.30887        62.88876         0.29282
C         66.08102        63.68077        -0.12441
C         67.31622        65.81225         0.21920
C         66.10281        65.11015        -0.06938
C         67.31608        67.23797         0.26876
C         66.10368        67.95735         0.03610
C         67.28284        70.05666         0.41507
C         66.12255        69.37284         0.12800
C         70.28130        31.85185        -1.37514
C         70.14266        33.18977        -0.96747
C         68.81919        33.86816        -1.11368
C         69.87241        36.02191        -0.10552
C         68.67808        35.33496        -0.69814
C         69.57591        37.04056         0.98193
C         68.36717        37.88039         0.67682
C         69.49910        39.94868         1.54486
C         68.23323        39.11415         1.55129
C         69.46285        41.35674         1.66420
C         68.17243        42.06388         1.58784
C         69.45774        44.31620         1.87358
C         68.12565        43.53751         1.78244
C         69.45373        45.68592         1.36650
C         68.23641        46.47199         1.43256
C         69.48332        48.54875         0.85514
C         68.28521        47.89595         1.05596
C         69.56328        49.99567         0.75278
C         68.42970        50.72976         0.50229
C         69.70966        52.86400         0.49609
C         68.46249        52.17277         0.32708
C         69.71132        54.29717         0.43223
C         68.49569        54.99397         0.23625
C         69.73504        57.18789         0.51985
C         68.41569        56.46327         0.54851
C         69.71178        58.64554         0.44524
C         68.58738        59.36118         0.13175
C         69.83482        61.53602         0.35203
C         68.72977        60.78884        -0.37783
C         69.81035        62.96196         0.46636
C         68.58801        63.68956         0.30746
C         69.77606        65.81557         0.65374
C         68.55715        65.08753         0.39961
C         69.76071        67.24348         0.73832
C         68.52743        67.96050         0.54239
C         69.73318        70.11137         0.89762
C         68.51298        69.37628         0.61777
C         69.74561        71.52586         0.97917
C         72.63317        31.88281        -0.83339
C         71.51120        31.19973        -1.30631
C         72.51370        33.20995        -0.42520
C         71.28017        33.88133        -0.48304
C         72.12877        35.79694         1.01343
C         71.18229        35.28610         0.00564
C         71.99133        37.06758         1.52791
C         70.80612        37.82957         1.35037
C         71.92863        39.98187         1.81299
C         70.73867        39.24251         1.58659
C         71.88510        41.35645         1.95142
C         70.67942        42.07064         1.82856
C         71.86160        44.15360         1.08897
C         70.78994        43.58126         1.99327
C         71.81240        45.37973         0.55385
C         70.60691        46.23037         0.64052
C         71.93102        48.51312         0.22931
C         70.67710        47.75907         0.46324
C         72.02166        49.84203         0.41639
C         70.89956        50.65075         1.03383
C         72.09928        52.88465         0.86005
C         70.91730        52.14977         0.73340
C         72.11812        54.28786         0.75008
C         70.94559        55.02523         0.55374
C         72.16276        57.24209         0.22639
C         70.93131        56.49038         0.47588
C         72.19257        58.59122         0.28598
C         70.99991        59.32454         0.85214
C         72.13993        61.53422         1.12165
C         70.98883        60.82977         0.70444
C         72.16701        62.91617         1.12218
C         71.00498        63.66253         0.81231
C         72.16911        65.84266         1.14577
C         70.98728        65.10583         0.87088
C         72.15605        67.21832         1.20849
C         70.95929        67.95480         1.01476
C         72.13134        70.13811         1.37019
C         70.95104        69.40333         1.09627
C         72.11591        71.52118         1.44508
C         70.91374        72.22044         1.24782
O         70.91963        36.32960        -1.03935
O         51.73176        58.89691         1.57397
O         68.84106        34.95726        -2.09545
O         63.32910        41.95377        -1.73266
O         55.75887        47.16736        -2.15397
O         50.29403        50.24945        -1.55377
O         49.80419        53.54622        -1.86446
O         55.65586        60.10670        -2.04444
O         58.04661        58.98737        -2.16419
O         57.66295        41.57845        -2.01594
O         70.30080        46.87061        -0.65510
O         65.72036        58.96320        -1.95302
O         46.07018        55.88827         1.19651
O         54.36373        50.39234         1.21608
O         47.94960        57.03813        -1.67531
O         43.03362        52.21525        -1.42249
O         53.96429        60.16324         1.37525
O         66.59291        51.21376        -1.58640
O         46.65435        45.91292        -0.89003
O         63.64244        51.47398         0.83707
O         64.99379        53.54742        -2.07270
O         46.25897        51.60214         1.70671
O         59.25966        48.46767        -2.50210
O         66.69326        49.70000         1.87565
O         38.67678        52.22060        -0.11674
O         64.06445        38.53381        -1.97199
O         65.82699        39.38037         2.09241
O         61.05484        60.03870         1.02745
O         68.64412        44.02796         3.06007
O         67.41107        46.29732         2.65652
O         51.44317        46.66427         2.19165
H         51.42502        45.77001         2.59539
O         63.32040        55.35330        -2.25877
H         63.77737        54.63730        -2.76620
O         63.76936        44.29667         2.27571
H         63.97494        43.42508         2.69274
O         67.95703        57.21912        -1.67296
H         67.31224        57.68649        -2.25287
O         64.20613        36.87349         1.32299
H         64.92072        36.45338         1.84622
O         71.08092        59.12305         2.31026
H         71.14149        58.15641         2.46626
O         53.45295        56.62392        -2.09805
H         52.68718        56.07213        -2.36942
O         68.13105        38.61628         2.93654
H         67.16170        38.55035         3.11901
O         62.56573        54.21654         1.16046
H         61.95724        53.53739         1.51903
O         63.85901        65.11929        -2.33572
H         64.72536        64.69889        -2.52524
O         61.12577        63.77050         1.35547
H         61.94942        64.21164         1.65397
O         56.05177        55.19230         1.51016
H         56.97059        55.42829         1.79991
O         63.63319        56.34624         1.25836
H         63.73341        57.24442         1.63822
O         69.28302        60.58232        -1.71622
H         69.39662        61.47011        -2.12208
O         66.71748        58.73349         1.47500
H         67.25013        58.12985         2.04801
O         48.98561        50.87880         1.80878
H         48.16192        51.25226         2.20998
O         67.40117        62.12367        -1.94041
H         67.22670        61.35989        -2.53199
O         67.93032        56.49388         1.93769
H         68.53685        55.94385         2.47712
O         64.75574        49.57097        -2.09286
H         65.39994        50.18655        -2.52181
O         67.08998        62.43773         1.66063
H         67.07151        63.22539         2.24301
O         58.54529        46.06230        -2.93394
H         58.98681        46.82507        -3.37673
O         71.26345        43.81659         3.34815
H         70.47575        43.74928         3.93453
O         58.73317        55.18538         1.43440
H         58.89054        54.27899         1.77770
O         69.23150        36.22962         2.16507
H         68.89328        36.88097         2.83146
O         71.09647        50.53796         2.48281
H         70.31321        50.93081         2.92294
O         64.93453        41.82865         2.47844
H         65.02461        40.85487         2.66012
O         46.62488        47.89396         2.12948
H         46.70896        48.83965         2.37881
O         57.52301        61.77955        -2.57687
H         57.32752        60.88641        -2.95082
O         60.99823        56.51878        -2.33733
H         61.83824        56.12092        -2.68113
O         47.09946        48.37798        -1.49121
H         47.88061        48.68550        -1.99769
H         38.90118        49.43401         3.52008
H         36.86336        50.44213         4.50284
H         36.55048        53.13182         1.12397
H         35.65836        52.27788         3.31089
H         39.24684        48.11178         1.77227
H         38.99740        54.72003        -0.36967
H         41.25728        46.80737         1.30362
H         41.08817        56.02051        -0.37564
H         44.89899        44.58336         0.94857
H         42.86533        45.86276         1.26574
H         44.76156        58.17748        -0.84202
H         42.72103        56.86235        -0.93675
H         46.66953        43.55610         0.55842
H         46.46274        59.22209         0.32619
H         48.81805        42.48655         0.98112
H         48.61046        60.38320         0.46484
H         52.63137        40.52727         1.37775
H         50.51597        41.72199         1.51956
H         52.31871        62.57038        -0.28231
H         50.24681        61.36914        -0.12184
H         54.33797        39.61558         1.28577
H         54.15095        63.50743         0.40854
H         56.39142        38.36959         0.87769
H         56.26919        64.71489         0.17106
H         59.83995        36.03702        -0.50813
H         57.74557        37.27010        -0.20208
H         59.89818        66.96441        -0.67498
H         57.79556        65.76367        -0.60977
H         61.55335        35.11284        -1.12691
H         61.56101        67.89390        -0.83515
H         63.75063        34.03850        -1.42506
H         63.66886        69.04279        -0.62708
H         67.61498        31.99842        -1.18394
H         65.45663        33.09466        -1.09580
H         67.24011        71.15149         0.47683
H         65.20199        69.94946        -0.02764
H         69.41292        31.30933        -1.77336
H         68.82065        72.09780         0.82905
H         73.60930        31.38086        -0.78838
H         71.59695        30.15563        -1.63696
H         73.40753        33.74074        -0.06946
H         73.01452        35.20172         1.27678
H         72.82095        37.48226         2.12098
H         72.89495        39.46512         1.87841
H         72.81415        41.90411         2.15918
H         72.77172        43.55188         0.95023
H         72.64548        45.74666        -0.06307
H         72.78039        47.96116        -0.20061
H         72.96639        50.35620         0.18229
H         73.04415        52.36052         1.06302
H         73.08111        54.80739         0.85484
H         73.05414        56.68618        -0.09946
H         73.11363        59.14202         0.04419
H         73.03213        60.97101         1.42900
H         73.09453        63.42636         1.41263
H         73.12114        65.31977         1.30357
H         73.09902        67.73991         1.41635
H         73.08429        69.61630         1.52796
H         73.04312        72.07078         1.65819
H         70.89982        73.31751         1.30641
