         344
 CSIRO Nanostructure Databank - Neutral Graphene Oxide Data Set
C          1.41072         3.65923         1.71398
C          0.19661         4.33730         1.73434
C          1.29172         6.34587         0.88319
C          0.13900         5.67305         1.34414
C          1.25016         7.78029         0.65418
C          0.04343         8.52938         0.72168
C          1.23492        10.65250         0.44243
C          0.03484         9.90539         0.61762
C          1.24648        12.08063         0.34334
C          0.04107        12.86904         0.53936
C          1.17346        14.90918        -0.33089
C          0.00515        14.19908         0.30744
C          1.21231        16.40358        -0.06986
C          0.00671        17.14529        -0.13146
C          1.16792        19.29220         0.04484
C         -0.00915        18.53697        -0.09047
C          1.16638        20.71576         0.05146
C         -0.02582        21.46597         0.32041
C          1.17890        23.58860         0.08604
C         -0.01357        22.83344         0.36033
C          1.17426        24.99058         0.03790
C          0.03057        25.81797         0.34680
C          1.37790        27.95727         0.30914
C          0.09639        27.17194         0.48783
C          1.54100        29.13456         1.24538
C          3.79971         3.48972         1.39649
C          2.58827         4.24736         1.19470
C          3.66303         6.34977         0.24012
C          2.51854         5.61623         0.71095
C          3.67478         7.77823         0.23312
C          2.45567         8.49812         0.42541
C          3.69232        10.61936         0.14831
C          2.45928         9.92362         0.32496
C          3.70272        12.04346         0.12474
C          2.46946        12.77144         0.15261
C          3.65592        14.92609         0.05200
C          2.47305        14.21030        -0.00009
C          3.68034        16.37340        -0.01681
C          2.43196        17.07526         0.03738
C          3.66151        19.22842        -0.29939
C          2.46384        18.56022         0.32286
C          3.53810        20.66139        -0.77074
C          2.37484        21.44541        -0.19749
C          3.63601        23.59246        -0.42223
C          2.39688        22.84433        -0.18156
C          3.66600        24.95097        -0.49280
C          2.39525        25.74921        -0.41995
C          3.89544        27.64838         0.43618
C          2.55889        26.96929         0.50473
C          4.04033        28.85521         1.33452
C          2.74814        29.59100         1.59885
C          6.31081         3.41206         0.90972
C          4.95917         3.69091         0.64847
C          6.12899         6.27166        -0.18881
C          4.86091         5.68638        -0.16437
C          6.09438         7.72897        -0.40818
C          4.88120         8.48288        -0.04738
C          6.17971        10.60280        -0.08700
C          4.91556         9.89207        -0.01575
C          6.17727        12.05393         0.04460
C          4.95056        12.73892         0.11693
C          6.22183        14.97164         0.01028
C          4.92192        14.20195         0.26234
C          6.14952        16.40992        -0.33747
C          4.89593        17.08967        -0.18821
C          6.08554        19.18765        -0.82354
C          4.85765        18.52518        -0.43287
C          6.04959        20.63069        -1.09753
C          4.85733        21.36859        -0.58862
C          6.17507        23.56263        -0.78730
C          4.91241        22.84522        -0.48084
C          6.20542        24.96693        -0.75217
C          4.91112        25.74310        -0.86081
C          6.28286        27.73840        -0.09589
C          4.99844        27.06190        -0.11544
C          6.32156        29.11887         0.34432
C          5.19457        29.71167         0.92163
C          8.65573         3.48505         0.46565
C          7.41409         4.13239         0.33986
C          8.58947         6.26609        -0.22526
C          7.36853         5.54411        -0.10693
C          8.66160         7.68355        -0.42932
C          7.40236         8.46865        -0.57914
C          8.67341        10.57998        -0.19756
C          7.37093         9.90275        -0.26629
C          8.68982        12.07545        -0.20516
C          7.40247        12.79863        -0.13299
C          8.59080        14.86174        -0.85280
C          7.39998        14.17151        -0.32073
C          8.56176        16.35823        -0.99123
C          7.31069        17.09026        -0.70341
C          8.56550        19.22416        -1.09689
C          7.30778        18.51310        -0.90446
C          8.59656        20.62391        -1.16653
C          7.34114        21.38729        -1.23054
C          8.60264        23.52998        -1.07936
C          7.36830        22.84554        -0.97525
C          8.65979        24.95094        -0.98113
C          7.43488        25.65788        -0.78776
C          8.71542        27.76274        -0.49400
C          7.45874        27.08304        -0.50547
C          8.72673        29.16552        -0.17652
C          7.54457        29.82678         0.20504
C         11.10178         3.49720         0.56671
C          9.90813         4.12347         0.26903
C         11.18313         6.28834        -0.23425
C          9.88224         5.53108        -0.20564
C         11.14506         7.76573        -0.26784
C          9.88036         8.39044        -0.46421
C         11.14153        10.60351        -0.66771
C          9.83718         9.85628        -0.84081
C         11.12996        12.05209        -0.78503
C          9.91534        12.77134        -0.66751
C         11.10141        14.89412        -0.92534
C          9.89791        14.16722        -0.79773
C         11.11946        16.39147        -0.70921
C          9.82827        17.10270        -0.99087
C         11.06672        19.21102        -1.21062
C          9.82277        18.49581        -1.07695
C         11.05392        20.61852        -1.32231
C          9.82177        21.35009        -1.25161
C         11.01410        23.50173        -1.51958
C          9.81047        22.78505        -1.28281
C         11.11770        24.92871        -1.32622
C          9.92985        25.63789        -1.04390
C         11.15139        27.79806        -0.75680
C          9.94172        27.07918        -0.78190
C         11.15627        29.18500        -0.41896
C          9.96446        29.85684        -0.15955
C         13.61941         3.57252         0.94731
C         12.31390         4.30608         0.95154
C         13.54207         6.52685         0.78798
C         12.50081         5.59399         0.12070
C         13.61441         7.87236         0.08990
C         12.34599         8.49891        -0.26346
C         13.64139        10.57417        -0.86133
C         12.32471         9.91383        -0.53946
C         13.61055        12.07823        -0.87413
C         12.34416        12.78056        -0.92065
C         13.59642        14.98399        -0.87576
C         12.31390        14.19650        -0.95328
C         13.52604        16.30765        -1.67170
C         12.31777        17.10965        -1.26805
C         13.57808        19.19325        -1.60403
C         12.31596        18.48338        -1.39386
C         13.60716        20.68340        -1.90087
C         12.23547        21.32690        -1.70359
C         14.02352        23.76954        -1.80687
C         12.09218        22.67201        -1.96105
C         13.80867        25.06898        -1.36261
C         12.45178        25.63134        -0.95971
C         13.67091        27.80331        -0.51647
C         12.45482        27.15502        -1.19156
C         13.59664        29.20655        -0.15825
C         12.40992        29.87817        -0.21069
C         16.13998         3.64093         1.07906
C         14.84483         4.35860         1.32230
C         16.03996         6.46113         0.66029
C         14.86572         5.79554         0.84470
C         16.05181         7.97193         0.66192
C         14.78700         8.57455         0.10534
C         16.09578        10.70535        -0.40953
C         14.78117        10.08009         0.01222
C         16.09194        12.04957        -0.82133
C         14.81504        12.73772        -0.94029
C         16.07951        14.90566        -1.48306
C         14.80051        14.17103        -1.29198
C         16.02756        16.39237        -1.43768
C         14.83497        17.06546        -1.49249
C         16.01940        19.24162        -1.17320
C         14.78623        18.52204        -1.50036
C         15.94761        20.61452        -0.80796
C         14.65830        21.39875        -0.97496
C         15.99538        23.47025        -0.43293
C         14.97825        22.88097        -1.25220
C         16.03960        24.87694        -0.22657
C         15.06204        25.77618        -0.94891
C         15.98048        27.69547         0.39229
C         14.84737        27.11637        -0.31396
C         15.94044        29.07601         0.75774
C         14.86362        29.95810         0.17746
C         18.56723         3.58975         0.68989
C         17.28893         4.29457         0.75584
C         18.46287         6.40116         0.20899
C         17.30087         5.74365         0.55269
C         18.49737         7.84595         0.02631
C         17.30457         8.59922         0.09110
C         18.55095        10.64055        -0.54334
C         17.31089         9.97465        -0.27054
C         18.56209        12.04326        -0.83099
C         17.32242        12.76256        -1.00723
C         18.53545        14.91028        -1.15044
C         17.34900        14.17526        -1.25147
C         18.52147        16.33922        -1.02728
C         17.34008        17.13310        -1.55891
C         18.34700        19.14857        -0.39333
C         17.23039        18.53656        -1.01542
C         18.23151        20.48575         0.09967
C         17.03019        21.22956        -0.15754
C         18.07159        23.25471         0.85638
C         17.00048        22.64767         0.15722
C         18.15820        24.64879         0.96763
C         17.10002        25.46701         0.47569
C         18.12116        27.45657         1.58479
C         17.08025        26.89727         0.77377
C         18.01613        28.81421         2.01568
C         16.93051        29.61288         1.55679
C         19.69668         4.20735         0.30289
C         20.95235         6.37779         0.03779
C         19.68123         5.61512        -0.22407
C         20.96251         7.72839        -0.04054
C         19.74228         8.49792        -0.19844
C         20.99131        10.60940        -0.67796
C         19.77605         9.91040        -0.45735
C         20.99556        11.97845        -0.90341
C         19.79989        12.71481        -0.95519
C         20.85433        14.88413        -0.25172
C         19.87347        14.20679        -1.17767
C         20.73704        16.19911         0.02538
C         19.61933        16.99622        -0.46105
C         20.64431        19.08554         0.42862
C         19.56504        18.41637        -0.16790
C         20.50709        20.38217         0.93900
C         19.30057        21.07098         0.83157
C         20.23050        23.06059         2.13667
C         19.01706        22.34326         1.60621
C         20.37834        24.39016         2.11470
C         19.45900        25.31742         1.35874
C         20.19750        27.24948         2.83330
C         19.25047        26.68125         1.99236
C         20.06708        28.57912         3.29000
C         19.00574        29.35783         2.87623
O         10.62709         5.71232        -1.47636
O          5.06694        21.95568         0.72129
O          8.95733        11.29004         1.03836
O         13.09212        23.27642        -2.71992
O          6.51262        21.03879        -2.41881
O          8.38084        15.46570        -2.18935
O          5.72548        14.71255         1.37451
O          6.60602         8.09480        -1.75214
O         15.31694        14.36843        -2.65932
O          4.74264         4.36589        -0.57230
O         14.71067         4.46118         2.80377
H         13.91503         5.03177         2.95611
O          2.45050        26.43875         1.85297
H          2.95217        27.03787         2.45782
O         14.02942        20.80566        -3.27002
H         13.84539        21.72948        -3.55876
O          0.98332        14.78315        -1.78577
H          0.96908        13.82464        -1.99382
O          9.54648         9.90356        -2.27765
H         10.04127         9.17886        -2.71507
O         15.76361        26.08391        -2.22423
H         16.65986        26.40813        -1.98941
O         16.05352         8.35033         2.09872
H         15.34083         7.81986         2.52432
O         13.18839         6.86342         2.16050
H         12.31730         7.31445         2.15423
O          1.36686        28.55919        -1.00659
H          1.35343        27.83012        -1.66938
O          4.40198        28.29453         2.67617
H          5.28968        27.88412         2.58591
O         17.59801        17.26777        -3.00206
H         17.40817        16.40033        -3.41943
O         14.53892        10.54406         1.37012
H         15.16872        10.04809         1.95057
O         13.33315        16.03161        -3.07894
H         14.09525        15.47411        -3.37475
O          2.11545        26.19088        -1.80041
H          1.90305        25.38702        -2.32173
O          2.64691        18.68616         1.78836
H          3.46768        18.20047         2.02053
O         15.37757        30.56067        -1.03368
H         15.61463        29.83754        -1.65066
O         19.58834         5.49189        -1.69035
H         19.54384         6.40158        -2.05469
O         12.48648        25.48411         0.50174
H         12.43014        24.52844         0.71565
O         11.29400        16.50260         0.78915
H         11.30597        17.46127         1.00551
O         20.13781        25.60265         0.08605
H         20.27131        24.74771        -0.37523
O         13.82026        15.31724         0.52008
H         12.97100        15.68322         0.87832
O         14.01829        21.42531         0.34333
H         14.70785        21.64896         1.00507
O         13.12251         5.19791        -1.11868
H         12.39356         4.98302        -1.74721
O         12.00660         4.68857         2.35527
H         11.87418         3.85300         2.85289
O         13.96387        10.14813        -2.22047
H         13.29283        10.52737        -2.82589
O         20.40355        14.39010        -2.53832
H         20.44800        15.35656        -2.70257
O         12.56767        27.35307        -2.62254
H         12.55233        28.31657        -2.79950
O          4.79706        26.06290        -2.28388
H          3.91843        26.49516        -2.40655
O         18.27297        21.89366         2.79197
H         18.07722        22.68738         3.33320
O          3.30586        20.60745        -2.21386
H          2.53338        20.02639        -2.37702
H          1.46231         2.62915         2.09490
H         -0.70720         3.83593         2.10706
H         -0.81301         6.20980         1.44426
H         -0.91755         8.01454         0.85329
H         -0.92957        10.42820         0.67292
H         -0.85782        12.37072         0.92971
H         -0.92764        14.75298         0.48650
H         -0.94249        16.61763        -0.29649
H         -0.96785        19.05185        -0.24909
H         -0.96040        20.93167         0.54042
H         -0.94536        23.36636         0.59330
H         -0.94084        25.32764         0.51440
H         -0.82394        27.73068         0.72063
H          0.63736        29.70302         1.51836
H          3.80110         2.74953         2.21098
H          2.83144        30.49613         2.22140
H          6.55679         2.61079         1.62361
H          5.24498        30.75511         1.26713
H          8.66435         2.45147         0.84412
H          7.58897        30.88881         0.48792
H         11.07215         2.44667         0.90170
H          9.98611        30.92082         0.11821
H         13.61795         2.49848         1.20340
H         12.37355        30.95020         0.03442
H         16.16445         2.55639         1.26842
H         14.63499        30.80192         0.87524
H         18.58671         2.53665         1.00990
H         16.88790        30.67378         1.84526
H         20.65164         3.66076         0.27587
H         21.89248         5.82109         0.16831
H         21.91743         8.26462         0.05611
H         21.94929        10.07308        -0.66208
H         21.95325        12.49418        -1.05990
H         21.71427        14.31317         0.12802
H         21.49244        16.67651         0.66453
H         21.61059        18.58064         0.55734
H         21.36046        20.83393         1.46325
H         20.96841        22.45295         2.68356
H         21.28406        24.82520         2.56410
H         21.08000        26.67680         3.14887
H         20.83386        28.99640         3.95733
H         18.91595        30.40296         3.20524
