         424
 CSIRO Nanostructure Databank - Neutral Graphene Oxide Data Set
C          1.25629         2.05039         0.78020
C          1.22385         3.44842         0.73428
C          2.46604         1.37273         0.83744
C          2.41498         4.20868         0.74782
C          1.19693         6.38813         0.58545
C          1.18049         7.77252         0.56114
C          2.40207         5.65862         0.70782
C          2.38309         8.51468         0.65456
C          1.20421        10.73376         0.89602
C          1.21897        12.12469         0.91143
C          2.37839         9.99018         0.65908
C          2.41801        12.85166         0.75180
C          1.25116        15.08429         0.76230
C          1.27085        16.46671         0.64831
C          2.44288        14.32147         0.69458
C          2.48045        17.16320         0.43282
C          2.51745        18.60072         0.33727
C          3.69088         2.09343         0.84809
C          3.66401         3.52784         0.80554
C          4.92603         1.41290         0.89732
C          4.89520         4.26292         0.84758
C          3.63453         6.38209         0.80277
C          3.59263         7.81062         0.77222
C          4.87683         5.67629         0.88435
C          4.85755         8.58553         0.80124
C          3.58453        10.70166         0.47501
C          3.61034        12.10489         0.56406
C          4.82062         9.91899         0.08490
C          4.91502        12.79840         0.56344
C          3.65869        15.01823         0.49052
C          3.68842        16.42394         0.33616
C          4.94786        14.30350         0.53248
C          4.94107        17.10834         0.07190
C          3.69780        19.26528         0.17455
C          4.94813        18.56070         0.04009
C          6.15310         2.11594         0.86178
C          6.14504         3.54926         0.84198
C          7.38514         1.41724         0.82986
C          7.38583         4.25226         0.71214
C          6.17622         6.38260         1.24141
C          6.16297         7.87777         0.93960
C          7.40287         5.67454         0.70858
C          7.38696         8.53885         0.42039
C          6.12441        10.67080         0.20607
C          6.13690        12.06153         0.19097
C          7.35240         9.93941         0.16676
C          7.34745        12.79433        -0.02983
C          6.17299        14.97620         0.03703
C          6.12252        16.39616        -0.14407
C          7.33489        14.23373        -0.15877
C          7.33645        17.13635        -0.66274
C          6.15258        19.25350        -0.01749
C          7.39719        18.57233        -0.19518
C          8.61131         2.09710         0.67468
C          8.60626         3.53375         0.55986
C          9.84300         1.40512         0.64114
C          9.82437         4.23190         0.32519
C          8.59173         6.37036         0.43287
C          8.58438         7.81744         0.30560
C          9.81265         5.65709         0.21183
C          9.80198         8.50946         0.00455
C          8.57473        10.64442        -0.06162
C          8.55491        12.07478        -0.18724
C          9.78568         9.90431        -0.14032
C          9.79812        12.81097        -0.21779
C          8.57636        14.90264        -0.72395
C          8.63237        16.38854        -0.46964
C          9.83843        14.18414        -0.31941
C          9.82595        17.05422        -0.41205
C          8.61046        19.21426        -0.09568
C          9.86529        18.51943        -0.29249
C         11.06424         2.08606         0.43140
C         11.05176         3.50982         0.21211
C         12.29821         1.39589         0.45567
C         12.26592         4.18826        -0.10566
C         11.03621         6.35980        -0.03693
C         11.04782         7.77775        -0.10245
C         12.26044         5.63166        -0.22799
C         12.28855         8.48508        -0.19584
C         11.04467        10.63517        -0.51736
C         11.03068        12.04045         0.02261
C         12.32234         9.90062        -0.21535
C         12.32980        12.77063         0.08971
C         11.08716        14.90701        -0.24100
C         11.09808        16.33200        -0.37463
C         12.30951        14.22341        -0.09794
C         12.31207        17.02307        -0.40756
C         11.05464        19.19049        -0.35954
C         12.32862        18.49278        -0.75084
C         13.51479         2.06160         0.18749
C         13.47406         3.45253        -0.17337
C         14.75589         1.37566         0.20833
C         14.70139         4.07356        -0.65410
C         13.46598         6.34340        -0.40688
C         13.52244         7.76134        -0.28268
C         14.69577         5.64718        -0.77607
C         14.76785         8.45504        -0.32625
C         13.54918        10.59963        -0.17186
C         13.58550        12.03091        -0.11965
C         14.79518         9.87938        -0.20482
C         14.79027        12.73905        -0.10560
C         13.54892        14.90900        -0.14711
C         13.54818        16.32734        -0.26513
C         14.78661        14.18539        -0.07242
C         14.78742        17.03194        -0.12758
C         13.58791        19.18274        -0.30363
C         14.76988        18.50024        -0.12264
C         15.98987         2.03243        -0.03994
C         15.99426         3.41473        -0.43268
C         17.22295         1.34891         0.04248
C         17.20189         4.10479        -0.63130
C         15.97007         6.34462        -0.70903
C         16.00215         7.72688        -0.49506
C         17.19290         5.55613        -0.96635
C         17.25543         8.45322        -0.48107
C         16.02393        10.58942        -0.14582
C         16.04072        12.02591        -0.07220
C         17.26783         9.86136        -0.24899
C         17.24852        12.74981         0.06579
C         15.99956        14.89507         0.02682
C         15.97617        16.32502         0.06495
C         17.25694        14.17139         0.12711
C         17.21112        17.05447         0.53471
C         16.02161        19.19446         0.00732
C         17.22920        18.51845         0.16180
C         18.44727         2.02171        -0.15902
C         18.43984         3.43243        -0.44224
C         19.68590         1.32599        -0.06604
C         19.69230         4.14748        -0.43620
C         18.51177         6.31101        -0.93052
C         18.48528         7.77053        -0.65670
C         19.73528         5.56383        -0.60212
C         19.69763         8.47744        -0.63366
C         18.49870        10.55753        -0.17841
C         18.51287        11.97099         0.35568
C         19.71438         9.88306        -0.41170
C         19.76680        12.73064         0.02149
C         18.47634        14.90503         0.20525
C         18.49286        16.31556         0.23690
C         19.78833        14.18141         0.41240
C         19.69885        17.04047         0.12144
C         18.46655        19.18879         0.10993
C         19.69685        18.48635         0.09478
C         20.90954         2.01100        -0.13131
C         20.89085         3.43606        -0.21603
C         22.17908         1.32497        -0.09674
C         22.19253         4.14294         0.03639
C         20.97414         6.27265        -0.52369
C         20.96173         7.73016        -0.83897
C         22.15613         5.62615        -0.21771
C         22.25529         8.50279        -0.73136
C         20.97110        10.62084        -0.41539
C         20.94538        12.06945        -0.26841
C         22.18876         9.96641        -0.52891
C         22.18138        12.80983        -0.43446
C         20.97684        14.93942        -0.11738
C         20.94419        16.34784        -0.10858
C         22.17096        14.24509        -0.41445
C         22.14335        17.08191        -0.35446
C         20.91569        19.18844        -0.03868
C         22.14505        18.53015        -0.25660
C         23.37864         1.98532        -0.36655
C         23.30692         3.44447        -0.77055
C         24.63386         1.34716        -0.36008
C         24.63341         4.16708        -0.71131
C         23.47351         6.33798        -0.05850
C         23.45981         7.80976        -0.31272
C         24.57315         5.63819        -0.89084
C         24.74562         8.53538        -0.18887
C         23.43225        10.68945        -0.51458
C         23.40681        12.12479        -0.58175
C         24.65816        10.01130        -0.49350
C         24.63384        12.84389        -0.72047
C         23.37163        14.97634        -0.68701
C         23.33235        16.39203        -0.66478
C         24.62222        14.26921        -0.82968
C         24.53546        17.17224        -1.00188
C         23.36070        19.24678        -0.34756
C         24.58765        18.60695        -0.64623
C         25.84740         2.04569        -0.59213
C         25.83005         3.49594        -0.79818
C         27.07887         1.38612        -0.56189
C         27.08586         4.19378        -1.05413
C         25.78862         6.40191        -1.29318
C         25.80272         7.93570        -1.23431
C         27.12263         5.66815        -1.46633
C         27.12578         8.57193        -0.89173
C         25.87515        10.70994        -0.67264
C         25.87150        12.13735        -0.75378
C         27.11615         9.99354        -0.76017
C         27.10450        12.84391        -0.80522
C         25.84750        14.95972        -0.96332
C         25.85518        16.41730        -1.14677
C         27.09493        14.27381        -0.90398
C         27.10146        17.15716        -0.93053
C         25.81997        19.26520        -0.64425
C         27.07332        18.57302        -0.77018
C         28.30682         2.08753        -0.71241
C         28.28126         3.51846        -0.97887
C         29.52219         1.41200        -0.61005
C         29.58445         4.22437        -1.31021
C         28.25446         6.34980        -0.66237
C         28.30915         7.85241        -0.81039
C         29.58416         5.67938        -0.89799
C         29.55760         8.54241        -0.69968
C         28.34400        10.69818        -0.71700
C         28.34357        12.13394        -0.72400
C         29.56855         9.97221        -0.70018
C         29.56942        12.83680        -0.67927
C         28.32045        14.99310        -0.93270
C         28.32615        16.44206        -0.90739
C         29.56789        14.28656        -0.78943
C         29.54198        17.15702        -0.83098
C         28.30244        19.25546        -0.61020
C         29.53665        18.56797        -0.64865
C         30.78240         2.09425        -0.62953
C         30.81835         3.50662        -0.82966
C         31.97394         1.39201        -0.40176
C         32.03416         4.21476        -0.71367
C         30.77881         6.37330        -0.75964
C         30.78950         7.82404        -0.65025
C         32.04325         5.66660        -0.72218
C         32.02076         8.52657        -0.60211
C         30.80545        10.68132        -0.65645
C         30.80232        12.10999        -0.62668
C         32.03685         9.96410        -0.61387
C         32.04585        12.80164        -0.59031
C         30.77193        14.98141        -0.76053
C         30.84161        16.44805        -1.09237
C         32.00083        14.27295        -0.26908
C         32.02050        17.14307        -0.46127
C         30.78030        19.25744        -0.44914
C         31.99058        18.56315        -0.29736
C         33.23293         2.06007        -0.40623
C         33.24849         3.50039        -0.53761
C         34.41942         1.34439        -0.25944
C         34.49698         4.20398        -0.40851
C         33.24857         6.37562        -0.55007
C         33.26163         7.81472        -0.53849
C         34.49946         5.67047        -0.40959
C         34.49206         8.52536        -0.46312
C         33.26968        10.67396        -0.62005
C         33.25201        12.09687        -0.62508
C         34.52450         9.95964        -0.54518
C         34.52102        12.83944        -0.85585
C         33.26642        15.04396        -0.48833
C         33.22413        16.42259        -0.30735
C         34.52135        14.33949        -0.77858
C         34.43188        17.10579         0.27570
C         33.22768        19.26518        -0.02889
C         34.42954        18.60770         0.13167
C         35.75117         2.00396        -0.40932
C         35.67274         3.49718        -0.22978
C         36.84988         1.37735         0.42414
C         36.89623         4.23745         0.23342
C         35.69585         6.37766        -0.31959
C         35.72734         7.81058        -0.35782
C         37.00502         5.62111        -0.41301
C         36.95999         8.51067        -0.23527
C         35.75942        10.63920        -0.48200
C         35.87369        12.12598        -0.77568
C         36.97430         9.93998        -0.23213
C         36.80671        12.79920         0.24636
C         35.85086        15.08294        -0.66490
C         35.73828        16.46215        -0.07389
C         36.93638        14.28901         0.03622
C         36.90880        17.13164         0.26661
C         35.66922        19.27546         0.38056
C         36.85804        18.57235         0.54111
C         38.02282         2.02718         0.63744
C         38.18872         3.42992         0.08201
C         39.19075         1.38278         1.21307
C         39.35593         4.18275         0.65806
C         38.19406         6.39834         0.10116
C         38.18597         7.76594         0.01239
C         39.31193         5.67603         0.82764
C         39.46689         8.51517         0.10640
C         38.18370        10.67865         0.08485
C         38.14767        12.08649         0.27710
C         39.42969         9.97902         0.29672
C         39.29953        12.81269         0.62081
C         38.08772        14.97370         0.41174
C         38.12582        16.40506         0.40462
C         39.27018        14.22294         0.81966
C         39.42297        17.12243         0.65137
C         38.05750        19.22535         0.96522
C         39.24172        18.54047         1.15782
C         40.36687         2.04654         1.35829
C         40.46648         3.48324         1.12871
C         41.67269         4.18459         1.39929
C         40.67398         6.31146         0.74213
C         40.75021         7.75964         0.44528
C         41.77630         5.56155         1.11367
C         41.86435         8.56193         0.95785
C         40.60137        10.64763         0.64061
C         40.66243        12.15695         0.63338
C         41.79984         9.92224         0.95562
C         41.51927        12.75875         1.72077
C         40.37135        14.89237         1.40622
C         40.41491        16.31986         1.47696
C         41.40213        14.06814         2.01976
C         41.44353        17.01378         2.10816
C         40.37418        19.17726         1.75152
C         41.45215        18.43075         2.18422
O         17.89009         5.91713        -2.20725
O         11.63013        12.26865         1.32377
O         14.56937         4.76126        -1.93083
O         21.68578         8.06817        -2.06514
O         25.08591        16.87351        -2.32264
O          5.56475         8.63054         2.07817
O         34.40210        13.62735        -2.08840
O         24.77367         6.00728        -2.29922
O         40.39485         8.08740        -0.95750
O          5.13970        13.57832         1.80135
O         36.16279        12.61496         1.54488
H         36.72709        13.03728         2.22631
O         41.31110        12.52213        -0.63805
H         40.74519        12.18065        -1.36276
O         22.87641         3.50652        -2.15548
H         23.58979         3.13854        -2.71677
O         36.37608        15.25987        -2.02021
H         36.40161        14.35786        -2.42154
O         38.45750         3.26412        -1.34721
H         39.31341         2.79379        -1.43300
O          6.28383         6.23785         2.69457
H          5.86564         7.04501         3.07991
O         40.05910        17.26700        -0.67106
H         40.92295        17.70860        -0.52614
O         27.89338         6.09927         0.73894
H         28.53054         6.58326         1.30570
O          8.47070        14.75450        -2.18506
H          7.83891        15.45316        -2.48902
O         19.98366        14.16655         1.88077
H         19.40669        13.44395         2.23229
O         23.92772         6.14584         1.33021
H         23.65493         5.22773         1.60497
O         36.16194         1.79588        -1.81766
H         36.96628         2.36185        -1.95592
O         37.22481         5.42839        -1.83994
H         37.38277         6.30920        -2.23959
O         25.44727         8.43625        -2.52508
H         24.77208         7.82346        -2.90142
O         36.53592        12.26947        -2.05658
H         35.89003        12.03976        -2.75832
O         18.52420        11.81613         1.84205
H         17.65206        11.44565         2.09955
O         17.11296        17.03961         2.00717
H         16.31156        17.55134         2.24860
O         25.34401         8.39267         1.11817
H         25.00311         7.55507         1.51944
O         34.28664        16.86751         1.73473
H         33.38172        17.15095         1.98726
O         29.70136         4.21770        -2.77759
H         28.95633         4.77539        -3.11992
O         12.36537        18.56119        -2.23299
H         13.18315        18.10136        -2.52039
O         31.84564        14.30088         1.21945
H         31.03038        13.79413         1.42794
O          7.14217        17.20137        -2.13432
H          7.82687        17.81142        -2.48584
O         38.93195         5.86723         2.26731
H         38.11701         5.31613         2.40056
O         31.07810        16.52446        -2.55791
H         30.25918        16.21705        -3.00219
O         11.01242        10.80306        -1.97778
H         10.98870         9.90999        -2.38198
O         27.45685         5.76321        -2.87143
H         26.62165         5.63527        -3.37452
O          4.67758         9.58747        -1.33473
H          4.63214        10.42539        -1.84115
O         36.70787         4.41970         1.67353
H         35.84797         4.87409         1.80633
O         22.53224         3.90688         1.45750
H         21.73041         4.09378         1.99027
H          0.31214         1.48791         0.77183
H          0.24704         3.94816         0.69413
H          2.48872         0.27426         0.87405
H          0.24067         5.85504         0.49974
H          0.21922         8.29254         0.45088
H          0.25108        10.21552         1.06960
H          0.27027        12.65308         1.07589
H          0.28600        14.58444         0.91958
H          0.33167        17.03361         0.72418
H          1.57285        19.15734         0.42429
H          4.93545         0.31318         0.92563
H          3.71357        20.36435         0.13243
H          7.38041         0.31883         0.88989
H          6.15765        20.34640         0.11462
H          9.85216         0.31403         0.78000
H          8.63986        20.29267         0.12540
H         12.30930         0.31853         0.67619
H         11.06669        20.28859        -0.27702
H         14.76530         0.30291         0.45046
H         13.60317        20.28374        -0.32404
H         17.23052         0.27867         0.29624
H         16.02805        20.28754        -0.12465
H         19.67655         0.23413         0.06678
H         18.47773        20.28094        -0.02908
H         22.18744         0.24140         0.09764
H         20.89852        20.28853        -0.01084
H         24.68535         0.27175        -0.12943
H         23.35283        20.33325        -0.17351
H         27.10660         0.30035        -0.38613
H         25.84573        20.34503        -0.43395
H         29.51819         0.32530        -0.43745
H         28.29619        20.34360        -0.44691
H         31.94519         0.30232        -0.25617
H         30.76808        20.35186        -0.33807
H         34.38237         0.24791        -0.17299
H         33.20209        20.36587        -0.00491
H         36.74173         0.32290         0.72524
H         35.67315        20.37259         0.47414
H         39.11262         0.32055         1.48930
H         38.00493        20.29252         1.23390
H         41.25084         1.52572         1.75473
H         42.55706         3.62880         1.74054
H         42.76884         6.03203         1.16999
H         42.76088         8.05824         1.34544
H         42.68603        10.48880         1.27278
H         42.29329        12.15447         2.21405
H         42.07750        14.51885         2.76103
H         42.25657        16.46878         2.60742
H         40.33851        20.26010         1.94275
H         42.29838        18.92874         2.67793
