         651
 CSIRO Nanostructure Databank - Neutral Graphene Oxide Data Set
C          5.90094        31.77334         0.67766
C          5.85211        33.12287         0.67916
C          8.31977        27.46589         0.95125
C          8.31629        28.85394         0.89891
C          7.11055        29.62821         0.86125
C          8.39068        31.74437         0.83359
C          7.13142        31.01137         0.83066
C          8.36931        33.22855         0.94610
C          7.02171        33.99618         1.06672
C          8.24629        36.20320         0.61564
C          7.08768        35.29487         0.30808
C          8.19486        37.59535        -0.06358
C         10.71441        23.11633         0.70705
C         10.74194        24.48602         0.78793
C          9.54632        25.30146         0.94107
C         10.72500        27.38575         0.24648
C          9.51796        26.67829         0.81414
C         10.85471        28.86313         0.59317
C          9.59266        29.61159         0.89005
C         10.91978        31.80400         0.56354
C          9.58750        31.07864         0.72850
C         10.70375        33.16449        -0.08177
C          9.60107        33.95985         0.47571
C         10.68862        36.15498        -0.34057
C          9.44754        35.39789         0.06218
C         10.73842        37.62138        -0.21378
C          9.53372        38.32445        -0.02899
C         10.77643        40.45922         0.09362
C          9.58537        39.70395         0.20577
C         10.70962        41.85168         0.51885
C         13.23908        18.73050         0.30303
C         13.21368        20.10620         0.27376
C         11.87034        20.82172         0.30682
C         13.28044        23.00377         0.46009
C         11.95069        22.29505         0.70245
C         13.25124        24.45446         0.25349
C         12.05033        25.19152         0.71443
C         13.13928        27.31359        -0.19648
C         12.03134        26.68318         0.54797
C         13.25929        28.79609        -0.19744
C         12.01340        29.60522         0.00001
C         13.20605        31.67711        -0.66045
C         12.00509        30.96172        -0.11421
C         13.21046        33.18583        -0.67921
C         11.89275        33.90910        -0.52905
C         13.25261        36.09287        -0.19603
C         11.94577        35.37092        -0.18134
C         13.22784        37.57515        -0.30500
C         11.99074        38.31317        -0.25021
C         13.26439        40.42417        -0.38641
C         11.99254        39.75475        -0.24171
C         13.37499        41.82884        -0.65438
C         11.52709        42.87913         0.06892
C         12.76032        45.06768         0.23451
C         11.73162        44.18291         0.62340
C         13.16193        46.29946         0.77372
C         15.78129        14.42044         0.06034
C         15.74197        15.83480         0.14433
C         14.50967        16.57610         0.23061
C         15.68745        18.72735         0.09540
C         14.46647        17.97318         0.20012
C         15.67703        20.11166        -0.09011
C         14.43067        20.85298         0.00036
C         15.50498        22.98320        -0.76639
C         14.40342        22.24605        -0.11156
C         15.52278        24.47285        -0.82462
C         14.26202        25.10554        -0.43907
C         15.96201        27.47117        -1.22057
C         14.03710        26.48959        -0.79631
C         15.87887        28.83795        -0.80147
C         14.56508        29.48781        -0.46710
C         15.81226        31.68665        -0.55527
C         14.52776        30.95813        -0.75068
C         15.73196        33.12730        -0.09347
C         14.47566        33.91660        -0.44391
C         15.76486        36.00857        -0.22073
C         14.50700        35.29455        -0.37017
C         15.74290        37.49370        -0.31738
C         14.45592        38.25478        -0.27277
C         15.73371        40.38218        -0.00697
C         14.46692        39.66539        -0.28111
C         15.83283        41.82894        -0.31348
C         14.56828        42.56804        -0.44895
C         15.67973        44.65356         0.43355
C         14.61494        43.95585        -0.39986
C         15.69411        46.17044         0.42747
C         14.45183        46.91521         0.57028
C         15.70150        49.06248         0.53194
C         14.50305        48.33652         0.61388
C         15.76783        50.47361         0.47408
C         18.28133        10.12299        -0.02828
C         18.20687        11.54127         0.07911
C         17.02550        12.26910        -0.03661
C         18.23636        14.44001         0.04294
C         16.99842        13.70819         0.03841
C         18.20096        15.85841         0.03416
C         16.97848        16.54398         0.14560
C         18.25099        18.79723         0.10816
C         16.95704        18.01218         0.27793
C         18.14712        20.19105        -0.32414
C         16.91698        20.81904        -0.33277
C         18.05032        22.99090        -0.99960
C         16.83584        22.19873        -0.84190
C         17.86213        24.28046        -1.43216
C         16.71688        25.13072        -1.20986
C         18.28455        27.27379        -0.60359
C         17.02480        26.60155        -1.12404
C         18.25654        28.75994        -0.21702
C         17.03416        29.54153        -0.51056
C         18.30019        31.67981        -0.27230
C         17.00741        30.99493        -0.42204
C         18.29857        33.15858        -0.47367
C         16.98924        33.88307        -0.45443
C         18.24803        35.98052         0.17128
C         16.96663        35.33827        -0.18863
C         18.27970        37.47971         0.27855
C         17.03880        38.21020        -0.12844
C         18.29792        40.40024         0.06999
C         17.02071        39.66507         0.17412
C         18.32243        41.77105         0.22088
C         17.09454        42.56138        -0.03838
C         18.20476        44.69069         0.51886
C         17.04590        44.01245         0.25710
C         18.20026        46.14161         0.60358
C         16.93113        46.82505         0.58126
C         18.26288        49.02574         0.56117
C         16.95571        48.29549         0.70822
C         18.17506        50.34802        -0.17281
C         16.98223        51.18013         0.27189
C         18.25196        53.32674         0.11938
C         17.04975        52.57695         0.31316
C         18.31820        54.70717         0.26038
C         20.77135         5.93285        -0.75856
C         20.72831         7.28234        -0.38271
C         19.52264         8.00578        -0.29636
C         20.76982        10.09382         0.11858
C         19.48829         9.39521        -0.00001
C         20.75803        11.54384         0.40473
C         19.45039        12.28622         0.39348
C         20.71842        14.40304         0.19393
C         19.49140        13.74472         0.16469
C         20.77901        15.83526        -0.12999
C         19.45718        16.59611        -0.20380
C         20.71510        18.72713        -0.18132
C         19.51775        18.06285        -0.10348
C         20.72045        20.18846        -0.47055
C         19.40627        20.89913        -0.68389
C         20.69658        23.12527        -0.44547
C         19.37246        22.40546        -0.59557
C         20.88339        24.58735        -0.64399
C         19.82531        25.37282        -1.09967
C         20.82853        27.41235        -0.39421
C         19.65683        26.70435        -0.71871
C         20.75015        28.90673        -0.65537
C         19.56591        29.51592         0.15350
C         20.74556        31.76785         0.27599
C         19.47486        31.01165        -0.07306
C         20.83058        33.15418        -0.39879
C         19.54872        33.91974        -0.25014
C         20.76577        36.02910         0.16021
C         19.54194        35.27982        -0.00378
C         20.78005        37.46457         0.25109
C         19.55856        38.18199         0.17031
C         20.82719        40.39732         0.14159
C         19.53733        39.63115        -0.06242
C         20.75408        41.82902         0.47908
C         19.54233        42.48647         0.45200
C         20.73325        44.62859         0.53510
C         19.45837        43.92477         0.91020
C         20.71806        46.10796         0.40713
C         19.43784        46.84763         0.54984
C         20.74846        48.94248         0.28049
C         19.50802        48.24679         0.41714
C         20.76963        50.37447         0.10736
C         19.50905        51.09326        -0.22362
C         20.78568        53.30189        -0.01033
C         19.50533        52.59648        -0.18408
C         20.80597        54.72492         0.03360
C         19.54389        55.46954         0.16895
C         20.62391        57.76506         0.06934
C         19.48193        56.85579         0.15143
C         20.74437        58.79628        -0.80464
C         23.30932         3.18296        -1.28017
C         22.04806         3.86058        -1.14260
C         23.29110         6.00112        -1.06994
C         21.99262         5.23051        -0.94239
C         23.26706         7.36211        -0.46418
C         22.00255         7.94161         0.10586
C         23.24438        10.19925        -0.27609
C         21.95956         9.44445        -0.02379
C         23.24064        11.60577         0.26417
C         22.02289        12.29489         0.34921
C         23.17642        14.45221         0.51894
C         21.97755        13.72400         0.40024
C         23.20778        15.88727         0.43703
C         22.00593        16.59357         0.13102
C         23.14258        18.75220         0.25738
C         21.98543        18.02313         0.00886
C         23.12980        20.24732         0.42785
C         21.92730        20.97660        -0.14625
C         23.15255        23.11266         0.09317
C         21.95242        22.35075        -0.23335
C         23.20294        24.50369         0.16640
C         22.01746        25.27320        -0.15374
C         23.26069        27.41986         0.11913
C         22.03136        26.70034        -0.17875
C         23.26567        28.81360         0.11751
C         22.13192        29.61383        -0.50884
C         23.23429        31.66622         0.29400
C         22.04361        31.01393         0.04410
C         23.27017        33.14847         0.24162
C         22.02337        33.91164         0.11607
C         23.20886        36.04412         0.55998
C         22.00933        35.31210         0.25743
C         23.24379        37.45930         0.56049
C         22.02514        38.16775         0.39084
C         23.25604        40.40126         0.40189
C         21.99537        39.63550         0.73550
C         23.25436        41.82204         0.69486
C         22.00390        42.52853         0.76863
C         23.22922        44.68697         1.14173
C         21.99197        43.90963         0.82417
C         23.19956        46.11991         0.65988
C         22.00931        46.82766         0.52313
C         23.23424        48.95914         0.41211
C         21.99109        48.24958         0.37827
C         23.24422        50.41645         0.39427
C         21.96230        51.09059         0.20440
C         23.22189        53.19932         0.01793
C         21.97200        52.53511         0.06016
C         23.22270        54.54857        -0.26160
C         22.06589        55.32724        -0.11538
C         23.24329        57.34897        -1.03292
C         22.61872        56.70094         0.17462
C         23.17065        58.64346        -1.42174
C         22.04974        59.57529        -0.94708
C         22.88901        61.12855        -2.73159
C         21.89964        60.74970        -1.88299
C         24.48878         3.80200        -1.00776
C         25.74568         5.98567        -0.74512
C         24.49354         5.21331        -0.47187
C         25.76061         7.37388        -0.59023
C         24.46789         8.05672        -0.29894
C         25.77560        10.09655         0.34763
C         24.47452         9.41387         0.07106
C         25.71481        11.61159         0.40938
C         24.46704        12.27313         0.48961
C         25.73173        14.46175         0.91173
C         24.41790        13.71074         0.80908
C         25.69652        15.91958         0.65021
C         24.43958        16.58546         0.52489
C         25.64546        18.74640         0.04119
C         24.42744        18.08231         0.67724
C         25.68964        20.21899         0.05452
C         24.37995        20.92040        -0.17632
C         25.68762        23.04898         0.46879
C         24.37524        22.33310         0.34175
C         25.64974        24.51117         0.46186
C         24.45649        25.21525         0.39337
C         25.67527        27.37384         0.55087
C         24.47271        26.67546         0.39227
C         25.70779        28.80647         0.59707
C         24.46524        29.53811         0.44700
C         25.64489        31.62936         1.11230
C         24.46031        30.93993         0.52183
C         25.67294        33.12091         1.19653
C         24.51179        33.87198         0.62303
C         25.70196        36.02878         1.27792
C         24.40309        35.30838         0.98972
C         25.72207        37.49445         1.03866
C         24.51665        38.15284         0.72193
C         25.79966        40.32195         0.78099
C         24.59013        39.58615         0.44061
C         25.74760        41.78938         0.93602
C         24.48713        42.55588         0.74190
C         25.78494        44.72383         1.00174
C         24.50221        43.93401         0.82929
C         25.66868        46.09488         0.39407
C         24.45569        46.79920         0.50022
C         25.72457        48.91334         0.54753
C         24.42739        48.23229         0.44009
C         25.73351        50.42434         0.57032
C         24.44139        51.11308         0.48142
C         25.73114        53.34097         0.15577
C         24.46919        52.61248         0.60090
C         25.72328        54.68326        -0.12454
C         24.42355        55.44294        -0.22843
C         25.67324        57.23382        -1.56744
C         24.39785        56.44485        -1.40195
C         25.55658        58.50585        -2.13245
C         24.29266        59.18769        -2.20292
C         24.13372        60.41675        -2.82242
C         26.90301         8.17063        -0.74478
C         28.10230        10.37913        -0.54752
C         26.79282         9.65778        -0.75400
C         28.16337        11.61527         0.01708
C         26.94041        12.31506         0.40876
C         28.20188        14.43611         0.64468
C         26.99702        13.72998         0.64446
C         28.17963        15.90833         0.82338
C         26.90643        16.59617         0.53899
C         28.20196        18.76870         0.16755
C         26.94418        18.00253         0.12327
C         28.16111        20.17323        -0.04355
C         26.88753        20.89417        -0.01774
C         28.08993        23.05621        -0.14183
C         26.92856        22.34783         0.07780
C         28.16050        24.47557         0.11805
C         26.95570        25.16156         0.62495
C         28.21049        27.37553         0.39762
C         26.96120        26.67180         0.71661
C         28.18816        28.81323         0.52780
C         26.93464        29.48044         0.71641
C         28.19478        31.68139         0.85625
C         26.97257        30.87786         1.28354
C         28.19802        33.08752         0.95891
C         26.96776        33.86353         1.17055
C         28.19411        36.03204         0.82876
C         26.95270        35.23597         1.15201
C         28.21106        37.43312         1.46432
C         26.95241        38.20016         1.09655
C         28.27412        40.34316         1.36758
C         26.96925        39.61895         1.05965
C         28.30052        41.78314         0.87256
C         27.04707        42.54280         0.97923
C         28.16499        44.55863         0.12285
C         27.04124        43.97360         0.60981
C         28.16162        45.96630        -0.37129
C         26.84217        46.75263        -0.22617
C         27.79358        49.02889        -0.69855
C         26.85002        48.23002        -0.11934
C         28.01103        50.42127        -0.36906
C         26.95392        51.13809         0.13458
C         28.23459        53.22979        -0.31655
C         27.05035        52.61978         0.39794
C         28.16064        54.59695        -0.65970
C         26.94894        55.32469        -0.63027
C         26.89150        56.59736        -1.24806
C         29.51135        12.28215         0.21995
C         30.63802        14.50597         0.29452
C         29.47089        13.79614         0.37018
C         30.79512        15.93024         0.79401
C         29.46485        16.69316         0.79894
C         30.64107        18.82357         0.13099
C         29.43702        18.11617         0.34737
C         30.60793        20.22173        -0.16381
C         29.35651        20.88747        -0.22405
C         30.56899        23.06247        -0.57757
C         29.27796        22.31402        -0.71042
C         30.49460        24.52752        -0.69058
C         29.31386        25.21659        -0.11611
C         30.62336        27.35717        -0.10119
C         29.36233        26.64897         0.07061
C         30.65280        28.77833         0.35749
C         29.39233        29.53804         0.50637
C         30.62985        31.71251         0.43419
C         29.41266        30.97729         0.61369
C         30.62085        33.12125         0.54246
C         29.42323        33.79251         0.81305
C         30.74772        35.99697         1.12359
C         29.44435        35.23837         1.14293
C         30.68944        37.47972         1.03451
C         29.49996        38.14836         1.09064
C         30.71903        40.36218         0.88974
C         29.42688        39.59831         0.69263
C         30.73191        41.72189         0.68177
C         29.45202        42.40694         0.50522
C         30.70367        44.57965         0.21395
C         29.44788        43.78043        -0.12263
C         30.68679        45.98426         0.03507
C         29.48812        46.64534        -0.39621
C         30.71360        48.82502        -0.49465
C         29.63287        47.95225        -0.84833
C         30.53940        50.26868        -0.59436
C         29.34821        51.01110        -0.55809
C         29.36183        52.44792        -0.60015
C         31.92856        16.71458         0.18569
C         33.09741        18.85623        -0.14934
C         31.90950        18.10633         0.07762
C         33.08317        20.26800        -0.28640
C         31.83046        20.95701        -0.33892
C         33.03727        23.11097        -0.63738
C         31.80565        22.38887        -0.53261
C         33.06320        24.53763        -1.16095
C         31.75059        25.30158        -0.93924
C         33.04448        27.45033        -0.75270
C         31.77155        26.72261        -0.51808
C         33.09291        28.91662        -0.46252
C         31.92644        29.55159         0.23840
C         33.09918        31.71050         0.19611
C         31.90166        31.03458         0.25118
C         33.14394        33.18121         0.11097
C         31.80990        33.92878         0.05455
C         33.19222        36.08999         0.36873
C         31.92005        35.32381         0.60850
C         33.15965        37.51963         0.85149
C         31.96511        38.18007         0.98203
C         33.26330        40.40482         1.05645
C         31.94637        39.63646         1.19902
C         33.20132        41.82533         0.70150
C         31.97060        42.47987         0.62008
C         33.17018        44.64135         0.39115
C         31.92628        43.90737         0.41251
C         33.12595        46.05518         0.28539
C         31.91207        46.75054         0.10550
C         31.87299        48.17959        -0.04328
C         34.28742        21.02014        -0.37174
C         35.51230        23.16647        -0.59317
C         34.27804        22.42366        -0.53679
C         35.55899        24.56017        -0.66647
C         34.30657        25.31124        -0.75826
C         35.60302        27.42054        -0.81793
C         34.31399        26.67685        -0.73262
C         35.65017        28.92318        -0.71171
C         34.41232        29.55906        -0.16270
C         35.67532        31.74602         0.36837
C         34.39617        30.99981         0.25384
C         35.65160        33.07258         0.74335
C         34.42511        33.87648         0.48019
C         35.63915        36.06079         1.05466
C         34.32285        35.28771         1.07433
C         35.63929        37.49514         0.69631
C         34.42957        38.22806         0.79110
C         35.68986        40.33403         0.48258
C         34.47432        39.63688         0.76012
C         35.65596        41.76462         0.40787
C         34.44970        42.51635         0.48601
C         34.40141        43.92925         0.39162
C         36.79780        25.26757        -0.59586
C         38.06792        27.38397        -0.43207
C         36.86808        26.67049        -0.62863
C         38.14871        28.80020        -0.23839
C         36.97484        29.71206        -0.60052
C         38.11025        31.61555         0.48517
C         36.91496        30.98838         0.25816
C         38.19123        33.04713         0.84462
C         36.90043        33.79418         1.06050
C         38.13466        35.99720         0.51277
C         36.93069        35.29944         1.02868
C         38.08648        37.36317         0.31813
C         36.87562        38.15835         0.46815
C         36.87630        39.56503         0.31891
C         39.31636        29.42028         0.13554
C         40.46686        31.69241        -0.26931
C         39.42894        30.88240         0.48389
C         40.44435        33.04677        -0.25235
C         39.35073        33.82258         0.31808
C         39.29449        35.19137         0.18232
O         30.12769        35.47497         2.39591
O         27.08772        25.83340         1.92236
O         12.58841        35.66254         1.08733
O         35.53712        28.30745        -2.00457
O         13.73300        31.21453        -1.95637
O         23.91295        56.35579         0.88320
O         19.55046        51.86360        -1.47953
O         37.70131        33.31925         2.20301
O         19.78336        22.88675         0.73231
O         18.02789        27.71419         0.79156
O         17.70997        18.51902         1.45151
O         26.36219        42.21758         2.25496
O         16.68796        42.20990        -1.45080
O         12.45283        33.66031        -1.85964
O         31.57922        28.93939         1.51675
O         25.95796        49.61965         1.80688
O          9.32950        33.72945         1.93803
O         25.31468        32.34675         2.37924
O         14.80905        26.99140        -1.84506
O         27.27279        46.17180        -1.51679
O         32.67199        40.10095         2.37528
O         17.59307        33.54012        -1.73432
O         13.55437        44.65505        -0.88805
O         16.58219        37.92357        -1.48246
O         26.17488        18.16391        -1.18023
O         14.20702        29.17844         0.92054
O         17.68370        48.87277         1.88323
O         12.26974        26.13008         1.85270
O         10.53874        29.18304         1.96513
O         24.30048        33.60807        -0.79053
O         12.85781        22.55168         1.80496
O         28.64352        48.48979        -1.67264
O         20.15711        20.42099        -1.83765
O         36.41220        35.85401         2.29297
O         18.13807        36.66124         1.48861
O         23.92682        40.00713        -0.81264
O         32.88923        28.48161        -1.82315
O         20.71004        45.22458        -0.80308
O         18.94643        24.88703        -2.05084
O         25.02664        14.04913         2.12255
O         24.82040        35.59810         2.36466
O          9.74090        35.61658        -1.33343
O         30.81808        25.06268        -2.05937
O         34.46194        29.88383         1.25344
O         34.05059        33.69652        -0.94886
O         28.78050        16.46492         2.08390
O         21.73843        57.50354         0.93496
O         16.23016        40.04916         1.35549
O         20.41621        40.04839        -1.19414
O         20.04096        11.85170         1.67112
O         12.28119        42.54141        -1.09712
O         15.94071        22.32183        -2.00057
O         37.34387        30.17959        -1.86367
O         20.14419        16.13981        -1.42611
O         24.99021        22.47662         1.64368
O         29.01494        22.22822        -2.16458
H         29.81994        21.86368        -2.59025
O         28.46083        40.31431         2.80082
H         27.77901        40.91279         3.18486
O         33.91938        35.11593         2.44145
H         34.73046        35.18839         2.99925
O         10.60336        27.30482        -1.20711
H          9.69043        27.55947        -1.45759
O         21.03772        32.87441        -1.81519
H         21.11974        33.72735        -2.29114
O         11.25763        20.72195        -0.99293
H         11.93291        20.91740        -1.67477
O         23.31369        10.35829        -1.74797
H         24.27400        10.37882        -1.99493
O         24.38647        52.87289         2.05555
H         24.24725        53.83854         2.17335
O         30.42525        11.90233        -0.81366
H         30.09485        12.25947        -1.66296
O         15.27618        44.25673         1.81061
H         15.76628        44.83361         2.43631
O         26.33431         9.62129         1.59703
H         25.71603         9.85729         2.31951
O         23.14656        20.52350         1.85064
H         22.34325        20.13730         2.25551
O         25.93707        44.94027         2.46425
H         26.09095        44.03966         2.84679
O         15.73721        33.05781         1.36840
H         14.93324        32.58527         1.67321
O         29.10179        39.61237        -0.72768
H         29.71900        39.01391        -1.19786
O         29.50911        43.54582        -1.56520
H         29.29518        44.38992        -2.01758
O         27.29448        52.77844         1.83189
H         26.46951        52.50306         2.29688
O         33.49959        36.23748        -1.04200
H         33.75488        35.35310        -1.40334
O         31.21996        15.75721         2.18660
H         30.40066        15.84582         2.73350
O         22.05148         7.69061         1.55542
H         21.20977         8.01792         1.93856
O         22.42283        60.11272         0.34522
H         22.42356        59.35586         0.97658
O         24.14517        55.72664        -2.62966
H         24.16023        56.37104        -3.36738
O         26.18448        10.11681        -2.01231
H         26.68612         9.71653        -2.75349
O         24.62949        18.33589         2.11034
H         23.93861        17.85160         2.60890
O         21.86277        39.73321         2.18733
H         21.23034        39.04943         2.49418
O         19.42745        43.90029         2.36898
H         18.69956        43.31010         2.65592
O         28.19403        37.29112         2.90006
H         28.34632        38.18455         3.28498
O         23.23080        44.83233         2.61665
H         24.15130        45.10789         2.86698
O          8.42854        36.43685         2.00908
H          8.06933        35.65449         2.49973
O         17.87759        49.93746        -1.53883
H         18.19136        50.66774        -2.12311
O         20.31529        29.02517        -2.03094
H         21.01108        29.54433        -2.50852
O         20.66210        32.01830         1.70354
H         20.44542        31.15731         2.13435
O         19.83093        29.33338         1.56080
H         19.29206        28.55663         1.85315
O         31.48416        34.09952        -1.37509
H         32.33179        34.16678        -1.86984
O         33.21734        24.35500        -2.60187
H         32.31556        24.45580        -2.99299
O         22.64601        29.81861        -1.88165
H         23.10418        28.99716        -2.16046
O         39.89013        30.86448         1.87988
H         39.62093        31.70981         2.30086
O         23.57902         6.11909        -2.49365
H         22.83712         6.60238        -2.91375
O          7.19248        38.36468         0.59022
H          7.25528        38.14321         1.54615
O          6.84615        34.29305         2.48497
H          7.04783        33.47969         2.99340
O         28.18487        36.26124        -0.60753
H         28.19867        35.39442        -1.06603
O         24.21024        20.98221        -1.61496
H         24.46337        20.11625        -2.00015
O         11.48113        32.06382         1.89013
H         10.82102        32.62533         2.36676
O         24.25082         5.15140         0.96052
H         25.02901         4.73572         1.38548
O         27.17556        30.65185         2.70912
H         26.65553        31.34488         3.18378
H          4.97837        31.19867         0.50114
H          4.88545        33.62769         0.53547
H          7.36113        26.93886         1.07910
H          6.14404        29.10238         0.83980
H          6.80669        35.23588        -0.75804
H          7.89557        37.46800        -1.13776
H          9.75098        22.58555         0.66296
H          8.61596        24.77886         1.21524
H          8.64796        40.21947         0.46208
H          9.92798        42.09225         1.25579
H         12.29526        18.17678         0.42218
H         11.18582        20.29519         1.02078
H         11.12584        44.45813         1.49868
H         12.42899        46.87355         1.36191
H         14.83446        13.86036         0.03449
H         13.56740        16.01331         0.30832
H         13.55047        48.88731         0.64105
H         14.83382        51.04907         0.57352
H         17.34661         9.56861        -0.20644
H         16.07391        11.73590        -0.18478
H         16.13510        53.13658         0.56608
H         17.38894        55.26208         0.46332
H         19.82384         5.38581        -0.89356
H         18.58006         7.49745        -0.55316
H         18.48227        57.31583         0.08385
H         19.90888        59.02279        -1.48358
H         23.30041         2.12516        -1.58320
H         21.11997         3.27023        -1.16907
H         22.76355        62.03159        -3.34749
H         20.98230        61.35225        -1.80521
H         25.43952         3.25256        -1.08889
H         26.62120         5.47746        -1.17857
H         26.46320        59.05867        -2.42542
H         24.96075        60.85652        -3.39839
H         27.89807         7.70020        -0.75036
H         29.03505         9.89739        -0.88228
H         29.03699        55.06973        -1.13146
H         27.83839        57.08002        -1.53855
H         29.93889        11.87400         1.17835
H         31.56549        13.95019         0.08313
H         31.47056        50.85939        -0.56128
H         30.27833        52.95203        -0.94696
H         32.89168        16.19024         0.08414
H         34.06256        18.32831        -0.16737
H         34.07089        46.61916         0.28145
H         32.77758        48.76156         0.18787
H         35.25134        20.49362        -0.30875
H         36.45615        22.60435        -0.52461
H         36.60188        42.30440         0.24825
H         35.34095        44.49458         0.29641
H         37.72524        24.68840        -0.46621
H         39.01170        26.81440        -0.41795
H         38.99868        37.88461        -0.01164
H         37.82537        40.08218         0.11203
H         40.17094        28.79621         0.44947
H         41.30983        31.16689        -0.74210
H         41.25435        33.60966        -0.74266
H         40.15765        35.71072        -0.26364
